2024-06-05 10:31:14.937 [main] INFO  hagrid.App - Starting application...
2024-06-05 10:31:15.142 [main] INFO  org.matsim.core.utils.io.IOUtils - Resolved phd/input/config.xml to phd\input\config.xml
2024-06-05 10:31:15.148 [main] INFO  org.matsim.core.config.Config - setting context to [file:/C:/Users/bienzeisler/Documents/GitHub/HAGRID/]
2024-06-05 10:31:15.285 [main] INFO  org.hibernate.validator.internal.util.Version - HV000001: Hibernate Validator 7.0.1.Final
2024-06-05 10:31:15.574 [main] INFO  org.matsim.core.utils.io.MatsimXmlParser - starting to parse xml from url file:/C:/Users/bienzeisler/Documents/GitHub/HAGRID/phd/input/config.xml ...
2024-06-05 10:31:15.646 [main] INFO  org.matsim.core.config.ConfigReader - using config_v2-reader
2024-06-05 10:31:15.647 [main] INFO  org.matsim.core.utils.io.MatsimXmlParser - Trying to load http://www.matsim.org/files/dtd/config_v2.dtd. In some cases (e.g. network interface up but no connection), this may take a bit.
2024-06-05 10:31:16.289 [main] INFO  org.matsim.core.config.groups.GlobalConfigGroup - setting number of threads to: 2
2024-06-05 10:31:16.308 [main] WARN  org.matsim.core.config.groups.ScoringConfigGroup - Setting pathSizeLogitBeta different from zero is experimental.  KN, Sep'08
2024-06-05 10:31:16.323 [main] INFO  org.matsim.core.config.groups.ScoringConfigGroup - scoring parameters for subpopulation null were just replaced.
2024-06-05 10:31:16.326 [main] WARN  org.matsim.core.config.groups.RoutingConfigGroup - The first mode routing (= teleported mode) params that are explicitly defined clear the default mode routing (= teleported mode) params.  If you want to avoid this 
2024-06-05 10:31:16.327 [main] WARN  org.matsim.core.config.groups.RoutingConfigGroup -     warning, use clearTeleportedModeParams(true) in code, and "clearDefaultTeleportedModeParams"=true in xml config.
2024-06-05 10:31:16.345 [main] INFO  org.matsim.core.config.Config - setting context to [file:/C:/Users/bienzeisler/Documents/GitHub/HAGRID/phd/input/config.xml]
2024-06-05 10:31:16.384 [main] INFO  org.matsim.core.scenario.ScenarioLoaderImpl - no facilities file set in config, therefore not loading any facilities.  This is not a problem except if you are using facilities
2024-06-05 10:31:16.385 [main] INFO  org.matsim.core.scenario.ScenarioLoaderImpl - no facility-attributes file set in config, not loading any facility attributes
2024-06-05 10:31:16.385 [main] INFO  org.matsim.core.scenario.ScenarioLoaderImpl - no population file set in config, not able to load population
2024-06-05 10:31:16.387 [main] INFO  org.matsim.core.scenario.ScenarioLoaderImpl - no person-attributes file set in config, not loading any person attributes
2024-06-05 10:31:16.387 [main] INFO  org.matsim.core.scenario.ScenarioLoaderImpl - no households file set in config, not loading households
2024-06-05 10:31:16.388 [main] INFO  org.matsim.core.scenario.ScenarioLoaderImpl - no transit schedule file set in config, not loading any transit schedule
2024-06-05 10:31:16.388 [main] INFO  org.matsim.core.scenario.ScenarioLoaderImpl - no transit vehicles file set in config, not loading any transit vehicles
2024-06-05 10:31:16.532 [main] INFO  hagrid.App - Initializing NetworkProcessor...
2024-06-05 10:31:16.546 [main] INFO  hagrid.App - Starting network processing...
2024-06-05 10:31:16.546 [main] INFO  hagrid.demand.NetworkProcessor - Starting network processing...
2024-06-05 10:31:16.562 [main] INFO  hagrid.demand.NetworkProcessor - Reading the network file from path: phd/input/reduced_network.xml.gz
2024-06-05 10:31:16.564 [main] INFO  org.matsim.core.utils.io.MatsimXmlParser - starting to parse xml from file phd/input/reduced_network.xml.gz ...
2024-06-05 10:31:16.565 [main] INFO  org.matsim.core.utils.io.IOUtils - Resolved phd/input/reduced_network.xml.gz to phd\input\reduced_network.xml.gz
2024-06-05 10:31:16.777 [main] INFO  org.matsim.core.network.io.MatsimNetworkReader - using network_v2-reader.
2024-06-05 10:31:16.778 [main] INFO  org.matsim.core.utils.io.MatsimXmlParser - Trying to load http://www.matsim.org/files/dtd/network_v2.dtd. In some cases (e.g. network interface up but no connection), this may take a bit.
2024-06-05 10:31:16.815 [main] INFO  org.matsim.core.network.NetworkImpl -  node # 1
2024-06-05 10:31:16.816 [main] INFO  org.matsim.core.network.NetworkImpl -  node # 4
2024-06-05 10:31:16.818 [main] INFO  org.matsim.core.network.NetworkImpl -  node # 16
2024-06-05 10:31:16.824 [main] INFO  org.matsim.core.network.NetworkImpl -  node # 64
2024-06-05 10:31:16.841 [main] INFO  org.matsim.core.network.NetworkImpl -  node # 256
2024-06-05 10:31:16.882 [main] INFO  org.matsim.core.network.NetworkImpl -  node # 1024
2024-06-05 10:31:16.959 [main] INFO  org.matsim.core.network.NetworkImpl -  node # 4096
2024-06-05 10:31:17.149 [main] INFO  org.matsim.core.network.NetworkImpl -  node # 16384
2024-06-05 10:31:17.163 [main] INFO  org.matsim.core.network.NetworkImpl -  link # 1
2024-06-05 10:31:17.166 [main] INFO  org.matsim.core.network.NetworkImpl -  link # 4
2024-06-05 10:31:17.173 [main] INFO  org.matsim.core.network.NetworkImpl -  link # 16
2024-06-05 10:31:17.187 [main] INFO  org.matsim.core.network.NetworkImpl -  link # 64
2024-06-05 10:31:17.223 [main] INFO  org.matsim.core.network.NetworkImpl -  link # 256
2024-06-05 10:31:17.294 [main] INFO  org.matsim.core.network.NetworkImpl -  link # 1024
2024-06-05 10:31:17.303 [main] WARN  org.matsim.api.core.v01.network.Link - length=0.0 of link id 1185132 may cause problems
2024-06-05 10:31:17.304 [main] WARN  org.matsim.api.core.v01.network.Link -  Future occurences of this logging statement are suppressed.
2024-06-05 10:31:17.467 [main] INFO  org.matsim.core.network.NetworkImpl -  link # 4096
2024-06-05 10:31:17.888 [main] INFO  org.matsim.core.network.NetworkImpl -  link # 16384
2024-06-05 10:31:17.979 [main] INFO  hagrid.demand.NetworkProcessor - Adjusting link lengths and free speeds...
2024-06-05 10:31:17.991 [main] INFO  hagrid.demand.NetworkProcessor - Link adjustments completed.
2024-06-05 10:31:17.992 [main] INFO  hagrid.demand.NetworkProcessor - Filtering network to include only car mode links...
2024-06-05 10:31:17.993 [main] INFO  org.matsim.core.config.Config - setting context to [file:/C:/Users/bienzeisler/Documents/GitHub/HAGRID/]
2024-06-05 10:31:18.003 [main] INFO  org.matsim.core.network.NetworkImpl -  node # 1
2024-06-05 10:31:18.004 [main] INFO  org.matsim.core.network.NetworkImpl -  node # 4
2024-06-05 10:31:18.005 [main] INFO  org.matsim.core.network.NetworkImpl -  node # 16
2024-06-05 10:31:18.006 [main] INFO  org.matsim.core.network.NetworkImpl -  node # 64
2024-06-05 10:31:18.006 [main] INFO  org.matsim.core.network.NetworkImpl -  node # 256
2024-06-05 10:31:18.009 [main] INFO  org.matsim.core.network.NetworkImpl -  node # 1024
2024-06-05 10:31:18.013 [main] INFO  org.matsim.core.network.NetworkImpl -  node # 4096
2024-06-05 10:31:18.024 [main] INFO  org.matsim.core.network.NetworkImpl -  node # 16384
2024-06-05 10:31:18.027 [main] INFO  org.matsim.core.network.NetworkImpl -  link # 1
2024-06-05 10:31:18.028 [main] INFO  org.matsim.core.network.NetworkImpl -  link # 4
2024-06-05 10:31:18.029 [main] INFO  org.matsim.core.network.NetworkImpl -  link # 16
2024-06-05 10:31:18.030 [main] INFO  org.matsim.core.network.NetworkImpl -  link # 64
2024-06-05 10:31:18.036 [main] INFO  org.matsim.core.network.NetworkImpl -  link # 256
2024-06-05 10:31:18.046 [main] INFO  org.matsim.core.network.NetworkImpl -  link # 1024
2024-06-05 10:31:18.071 [main] INFO  org.matsim.core.network.NetworkImpl -  link # 4096
2024-06-05 10:31:18.161 [main] INFO  org.matsim.core.network.NetworkImpl -  link # 16384
2024-06-05 10:31:18.202 [main] INFO  hagrid.demand.NetworkProcessor - Car mode network filtering completed.
2024-06-05 10:31:18.203 [main] INFO  hagrid.demand.NetworkProcessor - Creating parcel service network based on custom criteria...
2024-06-05 10:31:18.205 [main] INFO  org.matsim.core.config.Config - setting context to [file:/C:/Users/bienzeisler/Documents/GitHub/HAGRID/]
2024-06-05 10:31:18.213 [main] INFO  org.matsim.core.network.NetworkImpl -  node # 1
2024-06-05 10:31:18.214 [main] INFO  org.matsim.core.network.NetworkImpl -  node # 4
2024-06-05 10:31:18.215 [main] INFO  org.matsim.core.network.NetworkImpl -  node # 16
2024-06-05 10:31:18.215 [main] INFO  org.matsim.core.network.NetworkImpl -  node # 64
2024-06-05 10:31:18.216 [main] INFO  org.matsim.core.network.NetworkImpl -  node # 256
2024-06-05 10:31:18.217 [main] INFO  org.matsim.core.network.NetworkImpl -  node # 1024
2024-06-05 10:31:18.219 [main] INFO  org.matsim.core.network.NetworkImpl -  node # 4096
2024-06-05 10:31:18.223 [main] INFO  hagrid.demand.NetworkProcessor - Total number of links in the carFilteredNetwork: 19063
2024-06-05 10:31:18.226 [main] INFO  org.matsim.core.network.NetworkImpl -  link # 1
2024-06-05 10:31:18.227 [main] INFO  org.matsim.core.network.NetworkImpl -  link # 4
2024-06-05 10:31:18.228 [main] INFO  org.matsim.core.network.NetworkImpl -  link # 16
2024-06-05 10:31:18.229 [main] INFO  org.matsim.core.network.NetworkImpl -  link # 64
2024-06-05 10:31:18.230 [main] INFO  org.matsim.core.network.NetworkImpl -  link # 256
2024-06-05 10:31:18.234 [main] INFO  org.matsim.core.network.NetworkImpl -  link # 1024
2024-06-05 10:31:18.244 [main] INFO  org.matsim.core.network.NetworkImpl -  link # 4096
2024-06-05 10:31:18.270 [main] INFO  org.matsim.core.network.NetworkImpl -  link # 16384
2024-06-05 10:31:18.274 [main] INFO  hagrid.demand.NetworkProcessor - Parcel service network created successfully with 18730 links added.
2024-06-05 10:31:18.274 [main] INFO  hagrid.demand.NetworkProcessor - Difference in number of links between carFilteredNetwork and parcel service network: 333
2024-06-05 10:31:18.276 [main] INFO  hagrid.App - Network processing completed. Subnetworks created.
2024-06-05 10:31:18.276 [main] INFO  hagrid.App - Initializing LogisticsDataProcessor...
2024-06-05 10:31:18.278 [main] INFO  hagrid.App - Starting logistics data processing...
2024-06-05 10:31:18.279 [main] INFO  hagrid.demand.LogisticsDataProcessor - Reading logistics data...
2024-06-05 10:31:18.279 [main] INFO  hagrid.demand.LogisticsDataProcessor - Reading hub data from file: phd/input/hubs/KEP-hubs_v3.csv
2024-06-05 10:31:18.280 [main] INFO  hagrid.demand.LogisticsDataProcessor - Reading data from file: phd/input/hubs/KEP-hubs_v3.csv
2024-06-05 10:31:18.306 [main] INFO  org.matsim.core.network.NetworkImpl - building LinkQuadTree for nodes: xrange(286579.5670514173,953227.577157235); yrange(5242845.444958333,6018233.358636351)
2024-06-05 10:31:18.348 [main] INFO  org.matsim.core.network.NetworkImpl - Building LinkQuadTree took 0.058 seconds.
2024-06-05 10:31:18.358 [main] INFO  hagrid.demand.LogisticsDataProcessor - Read 25 entries from file: phd/input/hubs/KEP-hubs_v3.csv
2024-06-05 10:31:18.358 [main] INFO  hagrid.demand.LogisticsDataProcessor - Reading parcel locker data from file: phd/input/hubs/standorte_von_dhl.de.csv
2024-06-05 10:31:18.359 [main] INFO  hagrid.demand.LogisticsDataProcessor - Reading data from file: phd/input/hubs/standorte_von_dhl.de.csv
2024-06-05 10:31:20.731 [main] INFO  hagrid.demand.LogisticsDataProcessor - Read 47 entries from file: phd/input/hubs/standorte_von_dhl.de.csv
2024-06-05 10:31:20.731 [main] INFO  hagrid.demand.LogisticsDataProcessor - Reading shipping point data from folder: phd/input/hubs/standorte_von_paket.net/
2024-06-05 10:31:20.732 [main] INFO  hagrid.demand.LogisticsDataProcessor - Reading data from file: phd/input/hubs/standorte_von_paket.net/dhl_paketnet_list.csv
2024-06-05 10:31:20.848 [main] INFO  hagrid.demand.LogisticsDataProcessor - Read 301 entries from file: phd/input/hubs/standorte_von_paket.net/dhl_paketnet_list.csv
2024-06-05 10:31:20.849 [main] INFO  hagrid.demand.LogisticsDataProcessor - Reading data from file: phd/input/hubs/standorte_von_paket.net/dpd_paketnet_list.csv
2024-06-05 10:31:20.879 [main] INFO  hagrid.demand.LogisticsDataProcessor - Read 95 entries from file: phd/input/hubs/standorte_von_paket.net/dpd_paketnet_list.csv
2024-06-05 10:31:20.880 [main] INFO  hagrid.demand.LogisticsDataProcessor - Reading data from file: phd/input/hubs/standorte_von_paket.net/gls_paketnet_list.csv
2024-06-05 10:31:20.899 [main] INFO  hagrid.demand.LogisticsDataProcessor - Read 92 entries from file: phd/input/hubs/standorte_von_paket.net/gls_paketnet_list.csv
2024-06-05 10:31:20.901 [main] INFO  hagrid.demand.LogisticsDataProcessor - Reading data from file: phd/input/hubs/standorte_von_paket.net/hermes_paketnet_list.csv
2024-06-05 10:31:20.948 [main] INFO  hagrid.demand.LogisticsDataProcessor - Read 200 entries from file: phd/input/hubs/standorte_von_paket.net/hermes_paketnet_list.csv
2024-06-05 10:31:20.949 [main] INFO  hagrid.demand.LogisticsDataProcessor - Reading data from file: phd/input/hubs/standorte_von_paket.net/ups_paketnet_list.csv
2024-06-05 10:31:20.962 [main] INFO  hagrid.demand.LogisticsDataProcessor - Read 52 entries from file: phd/input/hubs/standorte_von_paket.net/ups_paketnet_list.csv
2024-06-05 10:31:20.963 [main] INFO  hagrid.demand.LogisticsDataProcessor - Loading carrier vehicle types...
2024-06-05 10:31:20.967 [main] INFO  org.matsim.freight.carriers.CarrierVehicleTypeReader - With early carrier vehicle type file formats, there will be an expected exception in the following.
2024-06-05 10:31:20.968 [main] INFO  org.matsim.core.utils.io.MatsimXmlParser - starting to parse xml from file phd/input/HAGRID_vehicleTypes.xml ...
2024-06-05 10:31:20.969 [main] INFO  org.matsim.core.utils.io.IOUtils - Resolved phd/input/HAGRID_vehicleTypes.xml to phd\input\HAGRID_vehicleTypes.xml
2024-06-05 10:31:21.079 [main] INFO  org.matsim.core.utils.io.MatsimXmlParser - Trying to load http://www.matsim.org/files/dtd/vehicleDefinitions_v2.0.xsd. In some cases (e.g. network interface up but no connection), this may take a bit.
2024-06-05 10:31:21.142 [main] INFO  org.matsim.core.utils.io.MatsimXmlParser - Trying to load http://www.matsim.org/files/dtd/matsimCommon.xsd. In some cases (e.g. network interface up but no connection), this may take a bit.
2024-06-05 10:31:21.178 [main] INFO  org.matsim.core.utils.io.MatsimXmlParser - Trying to load http://www.matsim.org/files/dtd/vehicleDefinitionsEnumTypes.xsd. In some cases (e.g. network interface up but no connection), this may take a bit.
2024-06-05 10:31:21.231 [main] INFO  org.matsim.freight.carriers.CarrierVehicleTypeReader - Using central vehicle parser
2024-06-05 10:31:21.234 [main] INFO  org.matsim.vehicles.MatsimVehicleReader - Found following schemaLocation in vehicle definition file: http://www.matsim.org/files/dtd http://www.matsim.org/files/dtd/vehicleDefinitions_v2.0.xsd
2024-06-05 10:31:21.237 [main] INFO  org.matsim.vehicles.VehicleReaderV2 - Using org.matsim.vehicles.VehicleReaderV2
2024-06-05 10:31:21.269 [main] INFO  hagrid.demand.LogisticsDataProcessor - Logistics data processing completed.
2024-06-05 10:31:21.270 [main] INFO  hagrid.App - Logistics data processing completed.
2024-06-05 10:31:21.270 [main] INFO  hagrid.App - Initializing DemandProcessor...
2024-06-05 10:31:21.272 [main] INFO  hagrid.App - Starting demand data processing...
2024-06-05 10:31:21.273 [main] INFO  hagrid.demand.DemandProcessor - Reading freight demand data from file: T:/bienzeisler/USEfUL-XT/matsim-hanover/01_MATSimModelCreator/vm-hochrechnung_matsim-punkte_epsg25832_mit_plz_v4_b2b.shp
2024-06-05 10:31:21.275 [main] WARN  org.matsim.core.utils.gis.GeoFileReader - Unsafe method! store.dispose() is not called from within this method
2024-06-05 10:31:22.067 [main] INFO  org.matsim.core.utils.gis.GeoFileReader - features to read #46565
2024-06-05 10:31:22.080 [main] INFO  org.matsim.core.utils.misc.Counter - features read #1
2024-06-05 10:31:22.081 [main] INFO  org.matsim.core.utils.misc.Counter - features read #2
2024-06-05 10:31:22.082 [main] INFO  org.matsim.core.utils.misc.Counter - features read #4
2024-06-05 10:31:22.084 [main] INFO  org.matsim.core.utils.misc.Counter - features read #8
2024-06-05 10:31:22.089 [main] INFO  org.matsim.core.utils.misc.Counter - features read #16
2024-06-05 10:31:22.094 [main] INFO  org.matsim.core.utils.misc.Counter - features read #32
2024-06-05 10:31:22.131 [main] INFO  org.matsim.core.utils.misc.Counter - features read #64
2024-06-05 10:31:22.141 [main] INFO  org.matsim.core.utils.misc.Counter - features read #128
2024-06-05 10:31:22.160 [main] INFO  org.matsim.core.utils.misc.Counter - features read #256
2024-06-05 10:31:22.181 [main] INFO  org.matsim.core.utils.misc.Counter - features read #512
2024-06-05 10:31:22.210 [main] INFO  org.matsim.core.utils.misc.Counter - features read #1024
2024-06-05 10:31:22.299 [main] INFO  org.matsim.core.utils.misc.Counter - features read #2048
2024-06-05 10:31:22.425 [main] INFO  org.matsim.core.utils.misc.Counter - features read #4096
2024-06-05 10:31:22.628 [main] INFO  org.matsim.core.utils.misc.Counter - features read #8192
2024-06-05 10:31:22.868 [main] INFO  org.matsim.core.utils.misc.Counter - features read #16384
2024-06-05 10:31:23.221 [main] INFO  org.matsim.core.utils.misc.Counter - features read #32768
2024-06-05 10:31:23.501 [main] INFO  org.matsim.core.utils.misc.Counter - features read #46565
2024-06-05 10:31:23.859 [main] INFO  hagrid.demand.DemandProcessor - Total Number of Deliveries: 105984
2024-06-05 10:31:23.859 [main] INFO  hagrid.demand.DemandProcessor - Total Number of Parcels: 196885
2024-06-05 10:31:23.902 [main] INFO  hagrid.demand.DemandProcessor - Demand Border: 600
2024-06-05 10:31:23.905 [main] INFO  hagrid.demand.DemandProcessor - Need for Split: dhl_31275: Number of Deliveries: 1557
2024-06-05 10:31:23.913 [main] INFO  hagrid.demand.DemandProcessor - Initializing KMeans clustering with 3 clusters...
2024-06-05 10:31:24.068 [main] INFO  hagrid.demand.DemandProcessor - Cluster 1: 519 features
2024-06-05 10:31:24.068 [main] INFO  hagrid.demand.DemandProcessor - Cluster 2: 519 features
2024-06-05 10:31:24.069 [main] INFO  hagrid.demand.DemandProcessor - Cluster 3: 519 features
2024-06-05 10:31:24.069 [main] INFO  hagrid.demand.DemandProcessor - Total number of clusters created: 3
2024-06-05 10:31:24.783 [main] INFO  hagrid.demand.DemandProcessor - Chart saved successfully at: phd/output/demand_clustering/ClusterResults_dhl_31275.png
2024-06-05 10:31:24.790 [main] INFO  hagrid.demand.DemandProcessor - Assigned Demand for new Carrier dhl_31275_0: 519
2024-06-05 10:31:24.791 [main] INFO  hagrid.demand.DemandProcessor - Assigned Demand for new Carrier dhl_31275_1: 519
2024-06-05 10:31:24.792 [main] INFO  hagrid.demand.DemandProcessor - Assigned Demand for new Carrier dhl_31275_2: 519
2024-06-05 10:31:24.795 [main] INFO  hagrid.demand.DemandProcessor - Need for Split: dhl_30880: Number of Deliveries: 950
2024-06-05 10:31:24.797 [main] INFO  hagrid.demand.DemandProcessor - Initializing KMeans clustering with 2 clusters...
2024-06-05 10:31:24.812 [main] INFO  hagrid.demand.DemandProcessor - Cluster 1: 475 features
2024-06-05 10:31:24.813 [main] INFO  hagrid.demand.DemandProcessor - Cluster 2: 475 features
2024-06-05 10:31:24.814 [main] INFO  hagrid.demand.DemandProcessor - Total number of clusters created: 2
2024-06-05 10:31:25.062 [main] INFO  hagrid.demand.DemandProcessor - Chart saved successfully at: phd/output/demand_clustering/ClusterResults_dhl_30880.png
2024-06-05 10:31:25.063 [main] INFO  hagrid.demand.DemandProcessor - Assigned Demand for new Carrier dhl_30880_0: 475
2024-06-05 10:31:25.064 [main] INFO  hagrid.demand.DemandProcessor - Assigned Demand for new Carrier dhl_30880_1: 475
2024-06-05 10:31:25.065 [main] INFO  hagrid.demand.DemandProcessor - Need for Split: dhl_31311: Number of Deliveries: 839
2024-06-05 10:31:25.066 [main] INFO  hagrid.demand.DemandProcessor - Initializing KMeans clustering with 2 clusters...
2024-06-05 10:31:25.105 [main] INFO  hagrid.demand.DemandProcessor - Cluster 1: 420 features
2024-06-05 10:31:25.106 [main] INFO  hagrid.demand.DemandProcessor - Cluster 2: 419 features
2024-06-05 10:31:25.108 [main] INFO  hagrid.demand.DemandProcessor - Total number of clusters created: 2
2024-06-05 10:31:25.393 [main] INFO  hagrid.demand.DemandProcessor - Chart saved successfully at: phd/output/demand_clustering/ClusterResults_dhl_31311.png
2024-06-05 10:31:25.394 [main] INFO  hagrid.demand.DemandProcessor - Assigned Demand for new Carrier dhl_31311_0: 420
2024-06-05 10:31:25.395 [main] INFO  hagrid.demand.DemandProcessor - Assigned Demand for new Carrier dhl_31311_1: 419
2024-06-05 10:31:25.397 [main] INFO  hagrid.demand.DemandProcessor - Need for Split: ups_31535: Number of Deliveries: 719
2024-06-05 10:31:25.398 [main] INFO  hagrid.demand.DemandProcessor - Initializing KMeans clustering with 2 clusters...
2024-06-05 10:31:25.407 [main] INFO  hagrid.demand.DemandProcessor - Cluster 1: 359 features
2024-06-05 10:31:25.407 [main] INFO  hagrid.demand.DemandProcessor - Cluster 2: 360 features
2024-06-05 10:31:25.408 [main] INFO  hagrid.demand.DemandProcessor - Total number of clusters created: 2
2024-06-05 10:31:25.618 [main] INFO  hagrid.demand.DemandProcessor - Chart saved successfully at: phd/output/demand_clustering/ClusterResults_ups_31535.png
2024-06-05 10:31:25.619 [main] INFO  hagrid.demand.DemandProcessor - Assigned Demand for new Carrier ups_31535_0: 359
2024-06-05 10:31:25.620 [main] INFO  hagrid.demand.DemandProcessor - Assigned Demand for new Carrier ups_31535_1: 360
2024-06-05 10:31:25.621 [main] INFO  hagrid.demand.DemandProcessor - Need for Split: ups_31515: Number of Deliveries: 668
2024-06-05 10:31:25.622 [main] INFO  hagrid.demand.DemandProcessor - Initializing KMeans clustering with 2 clusters...
2024-06-05 10:31:25.639 [main] INFO  hagrid.demand.DemandProcessor - Cluster 1: 334 features
2024-06-05 10:31:25.641 [main] INFO  hagrid.demand.DemandProcessor - Cluster 2: 334 features
2024-06-05 10:31:25.641 [main] INFO  hagrid.demand.DemandProcessor - Total number of clusters created: 2
2024-06-05 10:31:25.852 [main] INFO  hagrid.demand.DemandProcessor - Chart saved successfully at: phd/output/demand_clustering/ClusterResults_ups_31515.png
2024-06-05 10:31:25.853 [main] INFO  hagrid.demand.DemandProcessor - Assigned Demand for new Carrier ups_31515_0: 334
2024-06-05 10:31:25.854 [main] INFO  hagrid.demand.DemandProcessor - Assigned Demand for new Carrier ups_31515_1: 334
2024-06-05 10:31:25.855 [main] INFO  hagrid.demand.DemandProcessor - Need for Split: dhl_30419: Number of Deliveries: 838
2024-06-05 10:31:25.856 [main] INFO  hagrid.demand.DemandProcessor - Initializing KMeans clustering with 2 clusters...
2024-06-05 10:31:25.879 [main] INFO  hagrid.demand.DemandProcessor - Cluster 1: 419 features
2024-06-05 10:31:25.880 [main] INFO  hagrid.demand.DemandProcessor - Cluster 2: 419 features
2024-06-05 10:31:25.880 [main] INFO  hagrid.demand.DemandProcessor - Total number of clusters created: 2
2024-06-05 10:31:26.068 [main] INFO  hagrid.demand.DemandProcessor - Chart saved successfully at: phd/output/demand_clustering/ClusterResults_dhl_30419.png
2024-06-05 10:31:26.069 [main] INFO  hagrid.demand.DemandProcessor - Assigned Demand for new Carrier dhl_30419_0: 419
2024-06-05 10:31:26.070 [main] INFO  hagrid.demand.DemandProcessor - Assigned Demand for new Carrier dhl_30419_1: 419
2024-06-05 10:31:26.071 [main] INFO  hagrid.demand.DemandProcessor - Need for Split: dhl_30519: Number of Deliveries: 650
2024-06-05 10:31:26.072 [main] INFO  hagrid.demand.DemandProcessor - Initializing KMeans clustering with 2 clusters...
2024-06-05 10:31:26.094 [main] INFO  hagrid.demand.DemandProcessor - Cluster 1: 325 features
2024-06-05 10:31:26.095 [main] INFO  hagrid.demand.DemandProcessor - Cluster 2: 325 features
2024-06-05 10:31:26.095 [main] INFO  hagrid.demand.DemandProcessor - Total number of clusters created: 2
2024-06-05 10:31:26.262 [main] INFO  hagrid.demand.DemandProcessor - Chart saved successfully at: phd/output/demand_clustering/ClusterResults_dhl_30519.png
2024-06-05 10:31:26.262 [main] INFO  hagrid.demand.DemandProcessor - Assigned Demand for new Carrier dhl_30519_0: 325
2024-06-05 10:31:26.263 [main] INFO  hagrid.demand.DemandProcessor - Assigned Demand for new Carrier dhl_30519_1: 325
2024-06-05 10:31:26.264 [main] INFO  hagrid.demand.DemandProcessor - Need for Split: dhl_30938: Number of Deliveries: 861
2024-06-05 10:31:26.265 [main] INFO  hagrid.demand.DemandProcessor - Initializing KMeans clustering with 2 clusters...
2024-06-05 10:31:26.283 [main] INFO  hagrid.demand.DemandProcessor - Cluster 1: 430 features
2024-06-05 10:31:26.284 [main] INFO  hagrid.demand.DemandProcessor - Cluster 2: 431 features
2024-06-05 10:31:26.285 [main] INFO  hagrid.demand.DemandProcessor - Total number of clusters created: 2
2024-06-05 10:31:26.430 [main] INFO  hagrid.demand.DemandProcessor - Chart saved successfully at: phd/output/demand_clustering/ClusterResults_dhl_30938.png
2024-06-05 10:31:26.431 [main] INFO  hagrid.demand.DemandProcessor - Assigned Demand for new Carrier dhl_30938_0: 430
2024-06-05 10:31:26.433 [main] INFO  hagrid.demand.DemandProcessor - Assigned Demand for new Carrier dhl_30938_1: 431
2024-06-05 10:31:26.433 [main] INFO  hagrid.demand.DemandProcessor - Need for Split: dhl_30916: Number of Deliveries: 945
2024-06-05 10:31:26.434 [main] INFO  hagrid.demand.DemandProcessor - Initializing KMeans clustering with 2 clusters...
2024-06-05 10:31:26.449 [main] INFO  hagrid.demand.DemandProcessor - Cluster 1: 472 features
2024-06-05 10:31:26.450 [main] INFO  hagrid.demand.DemandProcessor - Cluster 2: 473 features
2024-06-05 10:31:26.450 [main] INFO  hagrid.demand.DemandProcessor - Total number of clusters created: 2
2024-06-05 10:31:26.627 [main] INFO  hagrid.demand.DemandProcessor - Chart saved successfully at: phd/output/demand_clustering/ClusterResults_dhl_30916.png
2024-06-05 10:31:26.629 [main] INFO  hagrid.demand.DemandProcessor - Assigned Demand for new Carrier dhl_30916_0: 472
2024-06-05 10:31:26.630 [main] INFO  hagrid.demand.DemandProcessor - Assigned Demand for new Carrier dhl_30916_1: 473
2024-06-05 10:31:26.631 [main] INFO  hagrid.demand.DemandProcessor - Need for Split: ups_31275: Number of Deliveries: 729
2024-06-05 10:31:26.631 [main] INFO  hagrid.demand.DemandProcessor - Initializing KMeans clustering with 2 clusters...
2024-06-05 10:31:26.647 [main] INFO  hagrid.demand.DemandProcessor - Cluster 1: 364 features
2024-06-05 10:31:26.648 [main] INFO  hagrid.demand.DemandProcessor - Cluster 2: 365 features
2024-06-05 10:31:26.649 [main] INFO  hagrid.demand.DemandProcessor - Total number of clusters created: 2
2024-06-05 10:31:26.801 [main] INFO  hagrid.demand.DemandProcessor - Chart saved successfully at: phd/output/demand_clustering/ClusterResults_ups_31275.png
2024-06-05 10:31:26.802 [main] INFO  hagrid.demand.DemandProcessor - Assigned Demand for new Carrier ups_31275_0: 364
2024-06-05 10:31:26.803 [main] INFO  hagrid.demand.DemandProcessor - Assigned Demand for new Carrier ups_31275_1: 365
2024-06-05 10:31:26.804 [main] INFO  hagrid.demand.DemandProcessor - Need for Split: dhl_31303: Number of Deliveries: 1073
2024-06-05 10:31:26.805 [main] INFO  hagrid.demand.DemandProcessor - Initializing KMeans clustering with 2 clusters...
2024-06-05 10:31:26.828 [main] INFO  hagrid.demand.DemandProcessor - Cluster 1: 536 features
2024-06-05 10:31:26.829 [main] INFO  hagrid.demand.DemandProcessor - Cluster 2: 537 features
2024-06-05 10:31:26.829 [main] INFO  hagrid.demand.DemandProcessor - Total number of clusters created: 2
2024-06-05 10:31:27.006 [main] INFO  hagrid.demand.DemandProcessor - Chart saved successfully at: phd/output/demand_clustering/ClusterResults_dhl_31303.png
2024-06-05 10:31:27.007 [main] INFO  hagrid.demand.DemandProcessor - Assigned Demand for new Carrier dhl_31303_0: 536
2024-06-05 10:31:27.008 [main] INFO  hagrid.demand.DemandProcessor - Assigned Demand for new Carrier dhl_31303_1: 537
2024-06-05 10:31:27.009 [main] INFO  hagrid.demand.DemandProcessor - Need for Split: dhl_30952: Number of Deliveries: 692
2024-06-05 10:31:27.010 [main] INFO  hagrid.demand.DemandProcessor - Initializing KMeans clustering with 2 clusters...
2024-06-05 10:31:27.016 [main] INFO  hagrid.demand.DemandProcessor - Cluster 1: 346 features
2024-06-05 10:31:27.016 [main] INFO  hagrid.demand.DemandProcessor - Cluster 2: 346 features
2024-06-05 10:31:27.018 [main] INFO  hagrid.demand.DemandProcessor - Total number of clusters created: 2
2024-06-05 10:31:27.144 [main] INFO  hagrid.demand.DemandProcessor - Chart saved successfully at: phd/output/demand_clustering/ClusterResults_dhl_30952.png
2024-06-05 10:31:27.144 [main] INFO  hagrid.demand.DemandProcessor - Assigned Demand for new Carrier dhl_30952_0: 346
2024-06-05 10:31:27.145 [main] INFO  hagrid.demand.DemandProcessor - Assigned Demand for new Carrier dhl_30952_1: 346
2024-06-05 10:31:27.146 [main] INFO  hagrid.demand.DemandProcessor - Need for Split: dpd_30855: Number of Deliveries: 645
2024-06-05 10:31:27.146 [main] INFO  hagrid.demand.DemandProcessor - Initializing KMeans clustering with 2 clusters...
2024-06-05 10:31:27.149 [main] INFO  hagrid.demand.DemandProcessor - Cluster 1: 323 features
2024-06-05 10:31:27.149 [main] INFO  hagrid.demand.DemandProcessor - Cluster 2: 322 features
2024-06-05 10:31:27.149 [main] INFO  hagrid.demand.DemandProcessor - Total number of clusters created: 2
2024-06-05 10:31:27.249 [main] INFO  hagrid.demand.DemandProcessor - Chart saved successfully at: phd/output/demand_clustering/ClusterResults_dpd_30855.png
2024-06-05 10:31:27.251 [main] INFO  hagrid.demand.DemandProcessor - Assigned Demand for new Carrier dpd_30855_0: 323
2024-06-05 10:31:27.252 [main] INFO  hagrid.demand.DemandProcessor - Assigned Demand for new Carrier dpd_30855_1: 322
2024-06-05 10:31:27.253 [main] INFO  hagrid.demand.DemandProcessor - Need for Split: dhl_30855: Number of Deliveries: 1052
2024-06-05 10:31:27.253 [main] INFO  hagrid.demand.DemandProcessor - Initializing KMeans clustering with 2 clusters...
2024-06-05 10:31:27.257 [main] INFO  hagrid.demand.DemandProcessor - Cluster 1: 526 features
2024-06-05 10:31:27.258 [main] INFO  hagrid.demand.DemandProcessor - Cluster 2: 526 features
2024-06-05 10:31:27.259 [main] INFO  hagrid.demand.DemandProcessor - Total number of clusters created: 2
2024-06-05 10:31:27.378 [main] INFO  hagrid.demand.DemandProcessor - Chart saved successfully at: phd/output/demand_clustering/ClusterResults_dhl_30855.png
2024-06-05 10:31:27.379 [main] INFO  hagrid.demand.DemandProcessor - Assigned Demand for new Carrier dhl_30855_0: 526
2024-06-05 10:31:27.380 [main] INFO  hagrid.demand.DemandProcessor - Assigned Demand for new Carrier dhl_30855_1: 526
2024-06-05 10:31:27.380 [main] INFO  hagrid.demand.DemandProcessor - Need for Split: dhl_30559: Number of Deliveries: 682
2024-06-05 10:31:27.381 [main] INFO  hagrid.demand.DemandProcessor - Initializing KMeans clustering with 2 clusters...
2024-06-05 10:31:27.384 [main] INFO  hagrid.demand.DemandProcessor - Cluster 1: 341 features
2024-06-05 10:31:27.384 [main] INFO  hagrid.demand.DemandProcessor - Cluster 2: 341 features
2024-06-05 10:31:27.384 [main] INFO  hagrid.demand.DemandProcessor - Total number of clusters created: 2
2024-06-05 10:31:27.480 [main] INFO  hagrid.demand.DemandProcessor - Chart saved successfully at: phd/output/demand_clustering/ClusterResults_dhl_30559.png
2024-06-05 10:31:27.481 [main] INFO  hagrid.demand.DemandProcessor - Assigned Demand for new Carrier dhl_30559_0: 341
2024-06-05 10:31:27.482 [main] INFO  hagrid.demand.DemandProcessor - Assigned Demand for new Carrier dhl_30559_1: 341
2024-06-05 10:31:27.482 [main] INFO  hagrid.demand.DemandProcessor - Need for Split: dpd_31535: Number of Deliveries: 641
2024-06-05 10:31:27.483 [main] INFO  hagrid.demand.DemandProcessor - Initializing KMeans clustering with 2 clusters...
2024-06-05 10:31:27.486 [main] INFO  hagrid.demand.DemandProcessor - Cluster 1: 321 features
2024-06-05 10:31:27.487 [main] INFO  hagrid.demand.DemandProcessor - Cluster 2: 320 features
2024-06-05 10:31:27.487 [main] INFO  hagrid.demand.DemandProcessor - Total number of clusters created: 2
2024-06-05 10:31:27.588 [main] INFO  hagrid.demand.DemandProcessor - Chart saved successfully at: phd/output/demand_clustering/ClusterResults_dpd_31535.png
2024-06-05 10:31:27.589 [main] INFO  hagrid.demand.DemandProcessor - Assigned Demand for new Carrier dpd_31535_0: 321
2024-06-05 10:31:27.589 [main] INFO  hagrid.demand.DemandProcessor - Assigned Demand for new Carrier dpd_31535_1: 320
2024-06-05 10:31:27.590 [main] INFO  hagrid.demand.DemandProcessor - Need for Split: dhl_30890: Number of Deliveries: 1138
2024-06-05 10:31:27.591 [main] INFO  hagrid.demand.DemandProcessor - Initializing KMeans clustering with 2 clusters...
2024-06-05 10:31:27.597 [main] INFO  hagrid.demand.DemandProcessor - Cluster 1: 569 features
2024-06-05 10:31:27.597 [main] INFO  hagrid.demand.DemandProcessor - Cluster 2: 569 features
2024-06-05 10:31:27.597 [main] INFO  hagrid.demand.DemandProcessor - Total number of clusters created: 2
2024-06-05 10:31:27.709 [main] INFO  hagrid.demand.DemandProcessor - Chart saved successfully at: phd/output/demand_clustering/ClusterResults_dhl_30890.png
2024-06-05 10:31:27.710 [main] INFO  hagrid.demand.DemandProcessor - Assigned Demand for new Carrier dhl_30890_0: 569
2024-06-05 10:31:27.710 [main] INFO  hagrid.demand.DemandProcessor - Assigned Demand for new Carrier dhl_30890_1: 569
2024-06-05 10:31:27.712 [main] INFO  hagrid.demand.DemandProcessor - Need for Split: ups_30855: Number of Deliveries: 717
2024-06-05 10:31:27.713 [main] INFO  hagrid.demand.DemandProcessor - Initializing KMeans clustering with 2 clusters...
2024-06-05 10:31:27.716 [main] INFO  hagrid.demand.DemandProcessor - Cluster 1: 358 features
2024-06-05 10:31:27.716 [main] INFO  hagrid.demand.DemandProcessor - Cluster 2: 359 features
2024-06-05 10:31:27.717 [main] INFO  hagrid.demand.DemandProcessor - Total number of clusters created: 2
2024-06-05 10:31:27.805 [main] INFO  hagrid.demand.DemandProcessor - Chart saved successfully at: phd/output/demand_clustering/ClusterResults_ups_30855.png
2024-06-05 10:31:27.806 [main] INFO  hagrid.demand.DemandProcessor - Assigned Demand for new Carrier ups_30855_0: 358
2024-06-05 10:31:27.807 [main] INFO  hagrid.demand.DemandProcessor - Assigned Demand for new Carrier ups_30855_1: 359
2024-06-05 10:31:27.807 [main] INFO  hagrid.demand.DemandProcessor - Need for Split: dhl_30826: Number of Deliveries: 648
2024-06-05 10:31:27.807 [main] INFO  hagrid.demand.DemandProcessor - Initializing KMeans clustering with 2 clusters...
2024-06-05 10:31:27.809 [main] INFO  hagrid.demand.DemandProcessor - Cluster 1: 324 features
2024-06-05 10:31:27.810 [main] INFO  hagrid.demand.DemandProcessor - Cluster 2: 324 features
2024-06-05 10:31:27.810 [main] INFO  hagrid.demand.DemandProcessor - Total number of clusters created: 2
2024-06-05 10:31:27.907 [main] INFO  hagrid.demand.DemandProcessor - Chart saved successfully at: phd/output/demand_clustering/ClusterResults_dhl_30826.png
2024-06-05 10:31:27.908 [main] INFO  hagrid.demand.DemandProcessor - Assigned Demand for new Carrier dhl_30826_0: 324
2024-06-05 10:31:27.908 [main] INFO  hagrid.demand.DemandProcessor - Assigned Demand for new Carrier dhl_30826_1: 324
2024-06-05 10:31:27.910 [main] INFO  hagrid.demand.DemandProcessor - Need for Split: dhl_30926: Number of Deliveries: 924
2024-06-05 10:31:27.910 [main] INFO  hagrid.demand.DemandProcessor - Initializing KMeans clustering with 2 clusters...
2024-06-05 10:31:27.913 [main] INFO  hagrid.demand.DemandProcessor - Cluster 1: 462 features
2024-06-05 10:31:27.914 [main] INFO  hagrid.demand.DemandProcessor - Cluster 2: 462 features
2024-06-05 10:31:27.914 [main] INFO  hagrid.demand.DemandProcessor - Total number of clusters created: 2
2024-06-05 10:31:28.027 [main] INFO  hagrid.demand.DemandProcessor - Chart saved successfully at: phd/output/demand_clustering/ClusterResults_dhl_30926.png
2024-06-05 10:31:28.028 [main] INFO  hagrid.demand.DemandProcessor - Assigned Demand for new Carrier dhl_30926_0: 462
2024-06-05 10:31:28.029 [main] INFO  hagrid.demand.DemandProcessor - Assigned Demand for new Carrier dhl_30926_1: 462
2024-06-05 10:31:28.029 [main] INFO  hagrid.demand.DemandProcessor - Need for Split: dhl_31832: Number of Deliveries: 1059
2024-06-05 10:31:28.029 [main] INFO  hagrid.demand.DemandProcessor - Initializing KMeans clustering with 2 clusters...
2024-06-05 10:31:28.034 [main] INFO  hagrid.demand.DemandProcessor - Cluster 1: 530 features
2024-06-05 10:31:28.034 [main] INFO  hagrid.demand.DemandProcessor - Cluster 2: 529 features
2024-06-05 10:31:28.034 [main] INFO  hagrid.demand.DemandProcessor - Total number of clusters created: 2
2024-06-05 10:31:28.143 [main] INFO  hagrid.demand.DemandProcessor - Chart saved successfully at: phd/output/demand_clustering/ClusterResults_dhl_31832.png
2024-06-05 10:31:28.144 [main] INFO  hagrid.demand.DemandProcessor - Assigned Demand for new Carrier dhl_31832_0: 530
2024-06-05 10:31:28.145 [main] INFO  hagrid.demand.DemandProcessor - Assigned Demand for new Carrier dhl_31832_1: 529
2024-06-05 10:31:28.145 [main] INFO  hagrid.demand.DemandProcessor - Need for Split: dhl_31535: Number of Deliveries: 1661
2024-06-05 10:31:28.146 [main] INFO  hagrid.demand.DemandProcessor - Initializing KMeans clustering with 3 clusters...
2024-06-05 10:31:28.156 [main] INFO  hagrid.demand.DemandProcessor - Cluster 1: 554 features
2024-06-05 10:31:28.156 [main] INFO  hagrid.demand.DemandProcessor - Cluster 2: 553 features
2024-06-05 10:31:28.157 [main] INFO  hagrid.demand.DemandProcessor - Cluster 3: 554 features
2024-06-05 10:31:28.157 [main] INFO  hagrid.demand.DemandProcessor - Total number of clusters created: 3
2024-06-05 10:31:28.276 [main] INFO  hagrid.demand.DemandProcessor - Chart saved successfully at: phd/output/demand_clustering/ClusterResults_dhl_31535.png
2024-06-05 10:31:28.276 [main] INFO  hagrid.demand.DemandProcessor - Assigned Demand for new Carrier dhl_31535_0: 554
2024-06-05 10:31:28.277 [main] INFO  hagrid.demand.DemandProcessor - Assigned Demand for new Carrier dhl_31535_1: 553
2024-06-05 10:31:28.278 [main] INFO  hagrid.demand.DemandProcessor - Assigned Demand for new Carrier dhl_31535_2: 554
2024-06-05 10:31:28.278 [main] INFO  hagrid.demand.DemandProcessor - Need for Split: dpd_31275: Number of Deliveries: 620
2024-06-05 10:31:28.278 [main] INFO  hagrid.demand.DemandProcessor - Initializing KMeans clustering with 2 clusters...
2024-06-05 10:31:28.281 [main] INFO  hagrid.demand.DemandProcessor - Cluster 1: 310 features
2024-06-05 10:31:28.282 [main] INFO  hagrid.demand.DemandProcessor - Cluster 2: 310 features
2024-06-05 10:31:28.282 [main] INFO  hagrid.demand.DemandProcessor - Total number of clusters created: 2
2024-06-05 10:31:28.368 [main] INFO  hagrid.demand.DemandProcessor - Chart saved successfully at: phd/output/demand_clustering/ClusterResults_dpd_31275.png
2024-06-05 10:31:28.369 [main] INFO  hagrid.demand.DemandProcessor - Assigned Demand for new Carrier dpd_31275_0: 310
2024-06-05 10:31:28.369 [main] INFO  hagrid.demand.DemandProcessor - Assigned Demand for new Carrier dpd_31275_1: 310
2024-06-05 10:31:28.370 [main] INFO  hagrid.demand.DemandProcessor - Need for Split: dhl_31515: Number of Deliveries: 1407
2024-06-05 10:31:28.370 [main] INFO  hagrid.demand.DemandProcessor - Initializing KMeans clustering with 3 clusters...
2024-06-05 10:31:28.379 [main] INFO  hagrid.demand.DemandProcessor - Cluster 1: 469 features
2024-06-05 10:31:28.379 [main] INFO  hagrid.demand.DemandProcessor - Cluster 2: 469 features
2024-06-05 10:31:28.379 [main] INFO  hagrid.demand.DemandProcessor - Cluster 3: 469 features
2024-06-05 10:31:28.380 [main] INFO  hagrid.demand.DemandProcessor - Total number of clusters created: 3
2024-06-05 10:31:28.483 [main] INFO  hagrid.demand.DemandProcessor - Chart saved successfully at: phd/output/demand_clustering/ClusterResults_dhl_31515.png
2024-06-05 10:31:28.485 [main] INFO  hagrid.demand.DemandProcessor - Assigned Demand for new Carrier dhl_31515_0: 469
2024-06-05 10:31:28.485 [main] INFO  hagrid.demand.DemandProcessor - Assigned Demand for new Carrier dhl_31515_1: 469
2024-06-05 10:31:28.486 [main] INFO  hagrid.demand.DemandProcessor - Assigned Demand for new Carrier dhl_31515_2: 469
2024-06-05 10:31:28.486 [main] INFO  hagrid.demand.DemandProcessor - Need for Split: dhl_30823: Number of Deliveries: 657
2024-06-05 10:31:28.487 [main] INFO  hagrid.demand.DemandProcessor - Initializing KMeans clustering with 2 clusters...
2024-06-05 10:31:28.492 [main] INFO  hagrid.demand.DemandProcessor - Cluster 1: 329 features
2024-06-05 10:31:28.492 [main] INFO  hagrid.demand.DemandProcessor - Cluster 2: 328 features
2024-06-05 10:31:28.494 [main] INFO  hagrid.demand.DemandProcessor - Total number of clusters created: 2
2024-06-05 10:31:28.577 [main] INFO  hagrid.demand.DemandProcessor - Chart saved successfully at: phd/output/demand_clustering/ClusterResults_dhl_30823.png
2024-06-05 10:31:28.578 [main] INFO  hagrid.demand.DemandProcessor - Assigned Demand for new Carrier dhl_30823_0: 329
2024-06-05 10:31:28.578 [main] INFO  hagrid.demand.DemandProcessor - Assigned Demand for new Carrier dhl_30823_1: 328
2024-06-05 10:31:28.579 [main] INFO  hagrid.demand.DemandProcessor - Need for Split: dhl_30966: Number of Deliveries: 648
2024-06-05 10:31:28.579 [main] INFO  hagrid.demand.DemandProcessor - Initializing KMeans clustering with 2 clusters...
2024-06-05 10:31:28.581 [main] INFO  hagrid.demand.DemandProcessor - Cluster 1: 324 features
2024-06-05 10:31:28.582 [main] INFO  hagrid.demand.DemandProcessor - Cluster 2: 324 features
2024-06-05 10:31:28.582 [main] INFO  hagrid.demand.DemandProcessor - Total number of clusters created: 2
2024-06-05 10:31:28.667 [main] INFO  hagrid.demand.DemandProcessor - Chart saved successfully at: phd/output/demand_clustering/ClusterResults_dhl_30966.png
2024-06-05 10:31:28.668 [main] INFO  hagrid.demand.DemandProcessor - Assigned Demand for new Carrier dhl_30966_0: 324
2024-06-05 10:31:28.669 [main] INFO  hagrid.demand.DemandProcessor - Assigned Demand for new Carrier dhl_30966_1: 324
2024-06-05 10:31:28.669 [main] INFO  hagrid.demand.DemandProcessor - Need for Split: dhl_30900: Number of Deliveries: 1308
2024-06-05 10:31:28.669 [main] INFO  hagrid.demand.DemandProcessor - Initializing KMeans clustering with 3 clusters...
2024-06-05 10:31:28.678 [main] INFO  hagrid.demand.DemandProcessor - Cluster 1: 436 features
2024-06-05 10:31:28.678 [main] INFO  hagrid.demand.DemandProcessor - Cluster 2: 436 features
2024-06-05 10:31:28.679 [main] INFO  hagrid.demand.DemandProcessor - Cluster 3: 436 features
2024-06-05 10:31:28.679 [main] INFO  hagrid.demand.DemandProcessor - Total number of clusters created: 3
2024-06-05 10:31:28.792 [main] INFO  hagrid.demand.DemandProcessor - Chart saved successfully at: phd/output/demand_clustering/ClusterResults_dhl_30900.png
2024-06-05 10:31:28.792 [main] INFO  hagrid.demand.DemandProcessor - Assigned Demand for new Carrier dhl_30900_0: 436
2024-06-05 10:31:28.793 [main] INFO  hagrid.demand.DemandProcessor - Assigned Demand for new Carrier dhl_30900_1: 436
2024-06-05 10:31:28.794 [main] INFO  hagrid.demand.DemandProcessor - Assigned Demand for new Carrier dhl_30900_2: 436
2024-06-05 10:31:28.795 [main] INFO  hagrid.demand.DemandProcessor - Need for Split: dhl_31319: Number of Deliveries: 945
2024-06-05 10:31:28.795 [main] INFO  hagrid.demand.DemandProcessor - Initializing KMeans clustering with 2 clusters...
2024-06-05 10:31:28.798 [main] INFO  hagrid.demand.DemandProcessor - Cluster 1: 472 features
2024-06-05 10:31:28.799 [main] INFO  hagrid.demand.DemandProcessor - Cluster 2: 473 features
2024-06-05 10:31:28.799 [main] INFO  hagrid.demand.DemandProcessor - Total number of clusters created: 2
2024-06-05 10:31:28.897 [main] INFO  hagrid.demand.DemandProcessor - Chart saved successfully at: phd/output/demand_clustering/ClusterResults_dhl_31319.png
2024-06-05 10:31:28.897 [main] INFO  hagrid.demand.DemandProcessor - Assigned Demand for new Carrier dhl_31319_0: 472
2024-06-05 10:31:28.898 [main] INFO  hagrid.demand.DemandProcessor - Assigned Demand for new Carrier dhl_31319_1: 473
2024-06-05 10:31:28.946 [main] INFO  hagrid.demand.DemandProcessor - Total Number of Deliveries: 105984
2024-06-05 10:31:28.947 [main] INFO  hagrid.demand.DemandProcessor - Total Number of Parcels: 196885
2024-06-05 10:31:28.947 [main] INFO  hagrid.demand.DemandProcessor - Validation completed successfully: Total number of deliveries and parcels match.
2024-06-05 10:31:28.947 [main] INFO  hagrid.demand.DemandProcessor - Freight demand data processing completed.
2024-06-05 10:31:28.948 [main] INFO  hagrid.App - Demand data processing completed.
2024-06-05 10:31:28.948 [main] INFO  hagrid.App - Initializing DeliveryGenerator...
2024-06-05 10:31:28.949 [main] INFO  hagrid.App - Starting delivery generation based on sorted Demand...
2024-06-05 10:31:28.950 [main] INFO  hagrid.demand.DeliveryGenerator - Generating parcels from sorted carrier demand...
2024-06-05 10:31:28.951 [main] INFO  hagrid.demand.DeliveryGenerator - Total Parcels from carrier demand: 105984
2024-06-05 10:31:29.339 [main] INFO  hagrid.utils.demand.ParcelStatisticsLogger - === Overall Summary ===
  Total Deliveries      : 106.031
  Total B2B Deliveries  : 19.188
  Total Parcels         : 198.060
  Total B2B Parcels     : 47.252
  B2B Delivery Ratio    : 18,10%
  B2B Parcel Ratio      : 23,86%
  Average Weight        : 4,70
  Average B2B Weight    : 8,39
  Total Locker Deliveries: 47
  Total Locker Parcels: 1.175
  Locker Delivery Ratio : 0,04%
  Locker Parcel Ratio : 0,59%

2024-06-05 10:31:29.341 [main] INFO  hagrid.demand.DeliveryGenerator - Parcel generation completed.
2024-06-05 10:31:29.341 [main] INFO  hagrid.App - Delivery and parcel generation completed.
2024-06-05 10:31:29.341 [main] INFO  hagrid.App - Initializing CarrierGenerator...
2024-06-05 10:31:29.342 [main] INFO  hagrid.App - Starting carrier generation based on sorted demand...
2024-06-05 10:31:29.343 [main] INFO  hagrid.demand.CarrierGenerator - Generating carriers from sorted deliveries and parcels...
2024-06-05 10:31:29.343 [main] ERROR hagrid.demand.CarrierGenerator - Error generating carriers
java.lang.IllegalStateException: Sub-network data is missing in the scenario.
	at hagrid.demand.CarrierGenerator.getScenarioData(CarrierGenerator.java:85) ~[classes/:?]
	at hagrid.demand.CarrierGenerator.run(CarrierGenerator.java:42) [classes/:?]
	at hagrid.App.runCarrierGeneration(App.java:104) [classes/:?]
	at hagrid.App.main(App.java:28) [classes/:?]
2024-06-05 10:31:29.356 [main] INFO  hagrid.App - Carrier generation completed.
2024-06-05 10:31:29.356 [main] INFO  hagrid.App - Application finished.
2024-06-05 10:33:01.622 [main] INFO  hagrid.App - Starting application...
2024-06-05 10:33:01.749 [main] INFO  org.matsim.core.utils.io.IOUtils - Resolved phd/input/config.xml to phd\input\config.xml
2024-06-05 10:33:01.752 [main] INFO  org.matsim.core.config.Config - setting context to [file:/C:/Users/bienzeisler/Documents/GitHub/HAGRID/]
2024-06-05 10:33:01.850 [main] INFO  org.hibernate.validator.internal.util.Version - HV000001: Hibernate Validator 7.0.1.Final
2024-06-05 10:33:02.037 [main] INFO  org.matsim.core.utils.io.MatsimXmlParser - starting to parse xml from url file:/C:/Users/bienzeisler/Documents/GitHub/HAGRID/phd/input/config.xml ...
2024-06-05 10:33:02.071 [main] INFO  org.matsim.core.config.ConfigReader - using config_v2-reader
2024-06-05 10:33:02.072 [main] INFO  org.matsim.core.utils.io.MatsimXmlParser - Trying to load http://www.matsim.org/files/dtd/config_v2.dtd. In some cases (e.g. network interface up but no connection), this may take a bit.
2024-06-05 10:33:02.160 [main] INFO  org.matsim.core.config.groups.GlobalConfigGroup - setting number of threads to: 2
2024-06-05 10:33:02.199 [main] WARN  org.matsim.core.config.groups.ScoringConfigGroup - Setting pathSizeLogitBeta different from zero is experimental.  KN, Sep'08
2024-06-05 10:33:02.214 [main] INFO  org.matsim.core.config.groups.ScoringConfigGroup - scoring parameters for subpopulation null were just replaced.
2024-06-05 10:33:02.218 [main] WARN  org.matsim.core.config.groups.RoutingConfigGroup - The first mode routing (= teleported mode) params that are explicitly defined clear the default mode routing (= teleported mode) params.  If you want to avoid this 
2024-06-05 10:33:02.218 [main] WARN  org.matsim.core.config.groups.RoutingConfigGroup -     warning, use clearTeleportedModeParams(true) in code, and "clearDefaultTeleportedModeParams"=true in xml config.
2024-06-05 10:33:02.232 [main] INFO  org.matsim.core.config.Config - setting context to [file:/C:/Users/bienzeisler/Documents/GitHub/HAGRID/phd/input/config.xml]
2024-06-05 10:33:02.252 [main] INFO  org.matsim.core.scenario.ScenarioLoaderImpl - no facilities file set in config, therefore not loading any facilities.  This is not a problem except if you are using facilities
2024-06-05 10:33:02.253 [main] INFO  org.matsim.core.scenario.ScenarioLoaderImpl - no facility-attributes file set in config, not loading any facility attributes
2024-06-05 10:33:02.253 [main] INFO  org.matsim.core.scenario.ScenarioLoaderImpl - no population file set in config, not able to load population
2024-06-05 10:33:02.254 [main] INFO  org.matsim.core.scenario.ScenarioLoaderImpl - no person-attributes file set in config, not loading any person attributes
2024-06-05 10:33:02.254 [main] INFO  org.matsim.core.scenario.ScenarioLoaderImpl - no households file set in config, not loading households
2024-06-05 10:33:02.255 [main] INFO  org.matsim.core.scenario.ScenarioLoaderImpl - no transit schedule file set in config, not loading any transit schedule
2024-06-05 10:33:02.256 [main] INFO  org.matsim.core.scenario.ScenarioLoaderImpl - no transit vehicles file set in config, not loading any transit vehicles
2024-06-05 10:33:02.366 [main] INFO  hagrid.App - Initializing NetworkProcessor...
2024-06-05 10:33:02.373 [main] INFO  hagrid.App - Starting network processing...
2024-06-05 10:33:02.374 [main] INFO  hagrid.demand.NetworkProcessor - Starting network processing...
2024-06-05 10:33:02.383 [main] INFO  hagrid.demand.NetworkProcessor - Reading the network file from path: phd/input/reduced_network.xml.gz
2024-06-05 10:33:02.385 [main] INFO  org.matsim.core.utils.io.MatsimXmlParser - starting to parse xml from file phd/input/reduced_network.xml.gz ...
2024-06-05 10:33:02.387 [main] INFO  org.matsim.core.utils.io.IOUtils - Resolved phd/input/reduced_network.xml.gz to phd\input\reduced_network.xml.gz
2024-06-05 10:33:02.509 [main] INFO  org.matsim.core.network.io.MatsimNetworkReader - using network_v2-reader.
2024-06-05 10:33:02.509 [main] INFO  org.matsim.core.utils.io.MatsimXmlParser - Trying to load http://www.matsim.org/files/dtd/network_v2.dtd. In some cases (e.g. network interface up but no connection), this may take a bit.
2024-06-05 10:33:02.545 [main] INFO  org.matsim.core.network.NetworkImpl -  node # 1
2024-06-05 10:33:02.546 [main] INFO  org.matsim.core.network.NetworkImpl -  node # 4
2024-06-05 10:33:02.546 [main] INFO  org.matsim.core.network.NetworkImpl -  node # 16
2024-06-05 10:33:02.548 [main] INFO  org.matsim.core.network.NetworkImpl -  node # 64
2024-06-05 10:33:02.559 [main] INFO  org.matsim.core.network.NetworkImpl -  node # 256
2024-06-05 10:33:02.580 [main] INFO  org.matsim.core.network.NetworkImpl -  node # 1024
2024-06-05 10:33:02.607 [main] INFO  org.matsim.core.network.NetworkImpl -  node # 4096
2024-06-05 10:33:02.706 [main] INFO  org.matsim.core.network.NetworkImpl -  node # 16384
2024-06-05 10:33:02.713 [main] INFO  org.matsim.core.network.NetworkImpl -  link # 1
2024-06-05 10:33:02.716 [main] INFO  org.matsim.core.network.NetworkImpl -  link # 4
2024-06-05 10:33:02.719 [main] INFO  org.matsim.core.network.NetworkImpl -  link # 16
2024-06-05 10:33:02.731 [main] INFO  org.matsim.core.network.NetworkImpl -  link # 64
2024-06-05 10:33:02.756 [main] INFO  org.matsim.core.network.NetworkImpl -  link # 256
2024-06-05 10:33:02.798 [main] INFO  org.matsim.core.network.NetworkImpl -  link # 1024
2024-06-05 10:33:02.805 [main] WARN  org.matsim.api.core.v01.network.Link - length=0.0 of link id 1185132 may cause problems
2024-06-05 10:33:02.807 [main] WARN  org.matsim.api.core.v01.network.Link -  Future occurences of this logging statement are suppressed.
2024-06-05 10:33:02.907 [main] INFO  org.matsim.core.network.NetworkImpl -  link # 4096
2024-06-05 10:33:03.166 [main] INFO  org.matsim.core.network.NetworkImpl -  link # 16384
2024-06-05 10:33:03.218 [main] INFO  hagrid.demand.NetworkProcessor - Adjusting link lengths and free speeds...
2024-06-05 10:33:03.226 [main] INFO  hagrid.demand.NetworkProcessor - Link adjustments completed.
2024-06-05 10:33:03.227 [main] INFO  hagrid.demand.NetworkProcessor - Filtering network to include only car mode links...
2024-06-05 10:33:03.228 [main] INFO  org.matsim.core.config.Config - setting context to [file:/C:/Users/bienzeisler/Documents/GitHub/HAGRID/]
2024-06-05 10:33:03.232 [main] INFO  org.matsim.core.network.NetworkImpl -  node # 1
2024-06-05 10:33:03.232 [main] INFO  org.matsim.core.network.NetworkImpl -  node # 4
2024-06-05 10:33:03.234 [main] INFO  org.matsim.core.network.NetworkImpl -  node # 16
2024-06-05 10:33:03.234 [main] INFO  org.matsim.core.network.NetworkImpl -  node # 64
2024-06-05 10:33:03.234 [main] INFO  org.matsim.core.network.NetworkImpl -  node # 256
2024-06-05 10:33:03.235 [main] INFO  org.matsim.core.network.NetworkImpl -  node # 1024
2024-06-05 10:33:03.238 [main] INFO  org.matsim.core.network.NetworkImpl -  node # 4096
2024-06-05 10:33:03.246 [main] INFO  org.matsim.core.network.NetworkImpl -  node # 16384
2024-06-05 10:33:03.247 [main] INFO  org.matsim.core.network.NetworkImpl -  link # 1
2024-06-05 10:33:03.247 [main] INFO  org.matsim.core.network.NetworkImpl -  link # 4
2024-06-05 10:33:03.248 [main] INFO  org.matsim.core.network.NetworkImpl -  link # 16
2024-06-05 10:33:03.248 [main] INFO  org.matsim.core.network.NetworkImpl -  link # 64
2024-06-05 10:33:03.252 [main] INFO  org.matsim.core.network.NetworkImpl -  link # 256
2024-06-05 10:33:03.257 [main] INFO  org.matsim.core.network.NetworkImpl -  link # 1024
2024-06-05 10:33:03.275 [main] INFO  org.matsim.core.network.NetworkImpl -  link # 4096
2024-06-05 10:33:03.325 [main] INFO  org.matsim.core.network.NetworkImpl -  link # 16384
2024-06-05 10:33:03.348 [main] INFO  hagrid.demand.NetworkProcessor - Car mode network filtering completed.
2024-06-05 10:33:03.348 [main] INFO  hagrid.demand.NetworkProcessor - Creating parcel service network based on custom criteria...
2024-06-05 10:33:03.349 [main] INFO  org.matsim.core.config.Config - setting context to [file:/C:/Users/bienzeisler/Documents/GitHub/HAGRID/]
2024-06-05 10:33:03.354 [main] INFO  org.matsim.core.network.NetworkImpl -  node # 1
2024-06-05 10:33:03.355 [main] INFO  org.matsim.core.network.NetworkImpl -  node # 4
2024-06-05 10:33:03.356 [main] INFO  org.matsim.core.network.NetworkImpl -  node # 16
2024-06-05 10:33:03.357 [main] INFO  org.matsim.core.network.NetworkImpl -  node # 64
2024-06-05 10:33:03.358 [main] INFO  org.matsim.core.network.NetworkImpl -  node # 256
2024-06-05 10:33:03.358 [main] INFO  org.matsim.core.network.NetworkImpl -  node # 1024
2024-06-05 10:33:03.360 [main] INFO  org.matsim.core.network.NetworkImpl -  node # 4096
2024-06-05 10:33:03.362 [main] INFO  hagrid.demand.NetworkProcessor - Total number of links in the carFilteredNetwork: 19063
2024-06-05 10:33:03.362 [main] INFO  org.matsim.core.network.NetworkImpl -  link # 1
2024-06-05 10:33:03.363 [main] INFO  org.matsim.core.network.NetworkImpl -  link # 4
2024-06-05 10:33:03.363 [main] INFO  org.matsim.core.network.NetworkImpl -  link # 16
2024-06-05 10:33:03.364 [main] INFO  org.matsim.core.network.NetworkImpl -  link # 64
2024-06-05 10:33:03.365 [main] INFO  org.matsim.core.network.NetworkImpl -  link # 256
2024-06-05 10:33:03.367 [main] INFO  org.matsim.core.network.NetworkImpl -  link # 1024
2024-06-05 10:33:03.372 [main] INFO  org.matsim.core.network.NetworkImpl -  link # 4096
2024-06-05 10:33:03.387 [main] INFO  org.matsim.core.network.NetworkImpl -  link # 16384
2024-06-05 10:33:03.390 [main] INFO  hagrid.demand.NetworkProcessor - Parcel service network created successfully with 18730 links added.
2024-06-05 10:33:03.390 [main] INFO  hagrid.demand.NetworkProcessor - Difference in number of links between carFilteredNetwork and parcel service network: 333
2024-06-05 10:33:03.392 [main] INFO  hagrid.App - Network processing completed. Subnetworks created.
2024-06-05 10:33:03.392 [main] INFO  hagrid.App - Initializing LogisticsDataProcessor...
2024-06-05 10:33:03.393 [main] INFO  hagrid.App - Starting logistics data processing...
2024-06-05 10:33:03.394 [main] INFO  hagrid.demand.LogisticsDataProcessor - Reading logistics data...
2024-06-05 10:33:03.394 [main] INFO  hagrid.demand.LogisticsDataProcessor - Reading hub data from file: phd/input/hubs/KEP-hubs_v3.csv
2024-06-05 10:33:03.395 [main] INFO  hagrid.demand.LogisticsDataProcessor - Reading data from file: phd/input/hubs/KEP-hubs_v3.csv
2024-06-05 10:33:03.408 [main] INFO  org.matsim.core.network.NetworkImpl - building LinkQuadTree for nodes: xrange(286579.5670514173,953227.577157235); yrange(5242845.444958333,6018233.358636351)
2024-06-05 10:33:03.430 [main] INFO  org.matsim.core.network.NetworkImpl - Building LinkQuadTree took 0.031 seconds.
2024-06-05 10:33:03.436 [main] INFO  hagrid.demand.LogisticsDataProcessor - Read 25 entries from file: phd/input/hubs/KEP-hubs_v3.csv
2024-06-05 10:33:03.436 [main] INFO  hagrid.demand.LogisticsDataProcessor - Reading parcel locker data from file: phd/input/hubs/standorte_von_dhl.de.csv
2024-06-05 10:33:03.437 [main] INFO  hagrid.demand.LogisticsDataProcessor - Reading data from file: phd/input/hubs/standorte_von_dhl.de.csv
2024-06-05 10:33:04.812 [main] INFO  hagrid.demand.LogisticsDataProcessor - Read 47 entries from file: phd/input/hubs/standorte_von_dhl.de.csv
2024-06-05 10:33:04.812 [main] INFO  hagrid.demand.LogisticsDataProcessor - Reading shipping point data from folder: phd/input/hubs/standorte_von_paket.net/
2024-06-05 10:33:04.813 [main] INFO  hagrid.demand.LogisticsDataProcessor - Reading data from file: phd/input/hubs/standorte_von_paket.net/dhl_paketnet_list.csv
2024-06-05 10:33:04.885 [main] INFO  hagrid.demand.LogisticsDataProcessor - Read 301 entries from file: phd/input/hubs/standorte_von_paket.net/dhl_paketnet_list.csv
2024-06-05 10:33:04.885 [main] INFO  hagrid.demand.LogisticsDataProcessor - Reading data from file: phd/input/hubs/standorte_von_paket.net/dpd_paketnet_list.csv
2024-06-05 10:33:04.900 [main] INFO  hagrid.demand.LogisticsDataProcessor - Read 95 entries from file: phd/input/hubs/standorte_von_paket.net/dpd_paketnet_list.csv
2024-06-05 10:33:04.901 [main] INFO  hagrid.demand.LogisticsDataProcessor - Reading data from file: phd/input/hubs/standorte_von_paket.net/gls_paketnet_list.csv
2024-06-05 10:33:04.912 [main] INFO  hagrid.demand.LogisticsDataProcessor - Read 92 entries from file: phd/input/hubs/standorte_von_paket.net/gls_paketnet_list.csv
2024-06-05 10:33:04.912 [main] INFO  hagrid.demand.LogisticsDataProcessor - Reading data from file: phd/input/hubs/standorte_von_paket.net/hermes_paketnet_list.csv
2024-06-05 10:33:04.932 [main] INFO  hagrid.demand.LogisticsDataProcessor - Read 200 entries from file: phd/input/hubs/standorte_von_paket.net/hermes_paketnet_list.csv
2024-06-05 10:33:04.933 [main] INFO  hagrid.demand.LogisticsDataProcessor - Reading data from file: phd/input/hubs/standorte_von_paket.net/ups_paketnet_list.csv
2024-06-05 10:33:04.938 [main] INFO  hagrid.demand.LogisticsDataProcessor - Read 52 entries from file: phd/input/hubs/standorte_von_paket.net/ups_paketnet_list.csv
2024-06-05 10:33:04.939 [main] INFO  hagrid.demand.LogisticsDataProcessor - Loading carrier vehicle types...
2024-06-05 10:33:04.941 [main] INFO  org.matsim.freight.carriers.CarrierVehicleTypeReader - With early carrier vehicle type file formats, there will be an expected exception in the following.
2024-06-05 10:33:04.941 [main] INFO  org.matsim.core.utils.io.MatsimXmlParser - starting to parse xml from file phd/input/HAGRID_vehicleTypes.xml ...
2024-06-05 10:33:04.943 [main] INFO  org.matsim.core.utils.io.IOUtils - Resolved phd/input/HAGRID_vehicleTypes.xml to phd\input\HAGRID_vehicleTypes.xml
2024-06-05 10:33:05.056 [main] INFO  org.matsim.core.utils.io.MatsimXmlParser - Trying to load http://www.matsim.org/files/dtd/vehicleDefinitions_v2.0.xsd. In some cases (e.g. network interface up but no connection), this may take a bit.
2024-06-05 10:33:05.115 [main] INFO  org.matsim.core.utils.io.MatsimXmlParser - Trying to load http://www.matsim.org/files/dtd/matsimCommon.xsd. In some cases (e.g. network interface up but no connection), this may take a bit.
2024-06-05 10:33:05.152 [main] INFO  org.matsim.core.utils.io.MatsimXmlParser - Trying to load http://www.matsim.org/files/dtd/vehicleDefinitionsEnumTypes.xsd. In some cases (e.g. network interface up but no connection), this may take a bit.
2024-06-05 10:33:05.214 [main] INFO  org.matsim.freight.carriers.CarrierVehicleTypeReader - Using central vehicle parser
2024-06-05 10:33:05.217 [main] INFO  org.matsim.vehicles.MatsimVehicleReader - Found following schemaLocation in vehicle definition file: http://www.matsim.org/files/dtd http://www.matsim.org/files/dtd/vehicleDefinitions_v2.0.xsd
2024-06-05 10:33:05.220 [main] INFO  org.matsim.vehicles.VehicleReaderV2 - Using org.matsim.vehicles.VehicleReaderV2
2024-06-05 10:33:05.247 [main] INFO  hagrid.demand.LogisticsDataProcessor - Logistics data processing completed.
2024-06-05 10:33:05.248 [main] INFO  hagrid.App - Logistics data processing completed.
2024-06-05 10:33:05.249 [main] INFO  hagrid.App - Initializing DemandProcessor...
2024-06-05 10:33:05.250 [main] INFO  hagrid.App - Starting demand data processing...
2024-06-05 10:33:05.250 [main] INFO  hagrid.demand.DemandProcessor - Reading freight demand data from file: T:/bienzeisler/USEfUL-XT/matsim-hanover/01_MATSimModelCreator/vm-hochrechnung_matsim-punkte_epsg25832_mit_plz_v4_b2b.shp
2024-06-05 10:33:05.253 [main] WARN  org.matsim.core.utils.gis.GeoFileReader - Unsafe method! store.dispose() is not called from within this method
2024-06-05 10:33:05.742 [main] INFO  org.matsim.core.utils.gis.GeoFileReader - features to read #46565
2024-06-05 10:33:05.750 [main] INFO  org.matsim.core.utils.misc.Counter - features read #1
2024-06-05 10:33:05.751 [main] INFO  org.matsim.core.utils.misc.Counter - features read #2
2024-06-05 10:33:05.752 [main] INFO  org.matsim.core.utils.misc.Counter - features read #4
2024-06-05 10:33:05.754 [main] INFO  org.matsim.core.utils.misc.Counter - features read #8
2024-06-05 10:33:05.755 [main] INFO  org.matsim.core.utils.misc.Counter - features read #16
2024-06-05 10:33:05.763 [main] INFO  org.matsim.core.utils.misc.Counter - features read #32
2024-06-05 10:33:05.776 [main] INFO  org.matsim.core.utils.misc.Counter - features read #64
2024-06-05 10:33:05.781 [main] INFO  org.matsim.core.utils.misc.Counter - features read #128
2024-06-05 10:33:05.794 [main] INFO  org.matsim.core.utils.misc.Counter - features read #256
2024-06-05 10:33:05.811 [main] INFO  org.matsim.core.utils.misc.Counter - features read #512
2024-06-05 10:33:05.839 [main] INFO  org.matsim.core.utils.misc.Counter - features read #1024
2024-06-05 10:33:05.869 [main] INFO  org.matsim.core.utils.misc.Counter - features read #2048
2024-06-05 10:33:05.907 [main] INFO  org.matsim.core.utils.misc.Counter - features read #4096
2024-06-05 10:33:05.999 [main] INFO  org.matsim.core.utils.misc.Counter - features read #8192
2024-06-05 10:33:06.159 [main] INFO  org.matsim.core.utils.misc.Counter - features read #16384
2024-06-05 10:33:06.515 [main] INFO  org.matsim.core.utils.misc.Counter - features read #32768
2024-06-05 10:33:06.799 [main] INFO  org.matsim.core.utils.misc.Counter - features read #46565
2024-06-05 10:33:07.118 [main] INFO  hagrid.demand.DemandProcessor - Total Number of Deliveries: 105984
2024-06-05 10:33:07.120 [main] INFO  hagrid.demand.DemandProcessor - Total Number of Parcels: 196885
2024-06-05 10:33:07.148 [main] INFO  hagrid.demand.DemandProcessor - Demand Border: 600
2024-06-05 10:33:07.149 [main] INFO  hagrid.demand.DemandProcessor - Need for Split: dhl_31275: Number of Deliveries: 1557
2024-06-05 10:33:07.157 [main] INFO  hagrid.demand.DemandProcessor - Initializing KMeans clustering with 3 clusters...
2024-06-05 10:33:07.265 [main] INFO  hagrid.demand.DemandProcessor - Cluster 1: 519 features
2024-06-05 10:33:07.266 [main] INFO  hagrid.demand.DemandProcessor - Cluster 2: 519 features
2024-06-05 10:33:07.266 [main] INFO  hagrid.demand.DemandProcessor - Cluster 3: 519 features
2024-06-05 10:33:07.266 [main] INFO  hagrid.demand.DemandProcessor - Total number of clusters created: 3
2024-06-05 10:33:07.742 [main] INFO  hagrid.demand.DemandProcessor - Chart saved successfully at: phd/output/demand_clustering/ClusterResults_dhl_31275.png
2024-06-05 10:33:07.746 [main] INFO  hagrid.demand.DemandProcessor - Assigned Demand for new Carrier dhl_31275_0: 519
2024-06-05 10:33:07.747 [main] INFO  hagrid.demand.DemandProcessor - Assigned Demand for new Carrier dhl_31275_1: 519
2024-06-05 10:33:07.748 [main] INFO  hagrid.demand.DemandProcessor - Assigned Demand for new Carrier dhl_31275_2: 519
2024-06-05 10:33:07.750 [main] INFO  hagrid.demand.DemandProcessor - Need for Split: dhl_30880: Number of Deliveries: 950
2024-06-05 10:33:07.751 [main] INFO  hagrid.demand.DemandProcessor - Initializing KMeans clustering with 2 clusters...
2024-06-05 10:33:07.758 [main] INFO  hagrid.demand.DemandProcessor - Cluster 1: 475 features
2024-06-05 10:33:07.759 [main] INFO  hagrid.demand.DemandProcessor - Cluster 2: 475 features
2024-06-05 10:33:07.759 [main] INFO  hagrid.demand.DemandProcessor - Total number of clusters created: 2
2024-06-05 10:33:07.937 [main] INFO  hagrid.demand.DemandProcessor - Chart saved successfully at: phd/output/demand_clustering/ClusterResults_dhl_30880.png
2024-06-05 10:33:07.938 [main] INFO  hagrid.demand.DemandProcessor - Assigned Demand for new Carrier dhl_30880_0: 475
2024-06-05 10:33:07.938 [main] INFO  hagrid.demand.DemandProcessor - Assigned Demand for new Carrier dhl_30880_1: 475
2024-06-05 10:33:07.939 [main] INFO  hagrid.demand.DemandProcessor - Need for Split: dhl_31311: Number of Deliveries: 839
2024-06-05 10:33:07.941 [main] INFO  hagrid.demand.DemandProcessor - Initializing KMeans clustering with 2 clusters...
2024-06-05 10:33:07.952 [main] INFO  hagrid.demand.DemandProcessor - Cluster 1: 419 features
2024-06-05 10:33:07.953 [main] INFO  hagrid.demand.DemandProcessor - Cluster 2: 420 features
2024-06-05 10:33:07.953 [main] INFO  hagrid.demand.DemandProcessor - Total number of clusters created: 2
2024-06-05 10:33:08.139 [main] INFO  hagrid.demand.DemandProcessor - Chart saved successfully at: phd/output/demand_clustering/ClusterResults_dhl_31311.png
2024-06-05 10:33:08.139 [main] INFO  hagrid.demand.DemandProcessor - Assigned Demand for new Carrier dhl_31311_0: 419
2024-06-05 10:33:08.140 [main] INFO  hagrid.demand.DemandProcessor - Assigned Demand for new Carrier dhl_31311_1: 420
2024-06-05 10:33:08.140 [main] INFO  hagrid.demand.DemandProcessor - Need for Split: ups_31535: Number of Deliveries: 719
2024-06-05 10:33:08.141 [main] INFO  hagrid.demand.DemandProcessor - Initializing KMeans clustering with 2 clusters...
2024-06-05 10:33:08.146 [main] INFO  hagrid.demand.DemandProcessor - Cluster 1: 359 features
2024-06-05 10:33:08.146 [main] INFO  hagrid.demand.DemandProcessor - Cluster 2: 360 features
2024-06-05 10:33:08.146 [main] INFO  hagrid.demand.DemandProcessor - Total number of clusters created: 2
2024-06-05 10:33:08.315 [main] INFO  hagrid.demand.DemandProcessor - Chart saved successfully at: phd/output/demand_clustering/ClusterResults_ups_31535.png
2024-06-05 10:33:08.316 [main] INFO  hagrid.demand.DemandProcessor - Assigned Demand for new Carrier ups_31535_0: 359
2024-06-05 10:33:08.317 [main] INFO  hagrid.demand.DemandProcessor - Assigned Demand for new Carrier ups_31535_1: 360
2024-06-05 10:33:08.317 [main] INFO  hagrid.demand.DemandProcessor - Need for Split: ups_31515: Number of Deliveries: 668
2024-06-05 10:33:08.318 [main] INFO  hagrid.demand.DemandProcessor - Initializing KMeans clustering with 2 clusters...
2024-06-05 10:33:08.328 [main] INFO  hagrid.demand.DemandProcessor - Cluster 1: 334 features
2024-06-05 10:33:08.329 [main] INFO  hagrid.demand.DemandProcessor - Cluster 2: 334 features
2024-06-05 10:33:08.329 [main] INFO  hagrid.demand.DemandProcessor - Total number of clusters created: 2
2024-06-05 10:33:08.493 [main] INFO  hagrid.demand.DemandProcessor - Chart saved successfully at: phd/output/demand_clustering/ClusterResults_ups_31515.png
2024-06-05 10:33:08.494 [main] INFO  hagrid.demand.DemandProcessor - Assigned Demand for new Carrier ups_31515_0: 334
2024-06-05 10:33:08.494 [main] INFO  hagrid.demand.DemandProcessor - Assigned Demand for new Carrier ups_31515_1: 334
2024-06-05 10:33:08.495 [main] INFO  hagrid.demand.DemandProcessor - Need for Split: dhl_30419: Number of Deliveries: 838
2024-06-05 10:33:08.496 [main] INFO  hagrid.demand.DemandProcessor - Initializing KMeans clustering with 2 clusters...
2024-06-05 10:33:08.506 [main] INFO  hagrid.demand.DemandProcessor - Cluster 1: 419 features
2024-06-05 10:33:08.507 [main] INFO  hagrid.demand.DemandProcessor - Cluster 2: 419 features
2024-06-05 10:33:08.507 [main] INFO  hagrid.demand.DemandProcessor - Total number of clusters created: 2
2024-06-05 10:33:08.710 [main] INFO  hagrid.demand.DemandProcessor - Chart saved successfully at: phd/output/demand_clustering/ClusterResults_dhl_30419.png
2024-06-05 10:33:08.710 [main] INFO  hagrid.demand.DemandProcessor - Assigned Demand for new Carrier dhl_30419_0: 419
2024-06-05 10:33:08.711 [main] INFO  hagrid.demand.DemandProcessor - Assigned Demand for new Carrier dhl_30419_1: 419
2024-06-05 10:33:08.711 [main] INFO  hagrid.demand.DemandProcessor - Need for Split: dhl_30519: Number of Deliveries: 650
2024-06-05 10:33:08.712 [main] INFO  hagrid.demand.DemandProcessor - Initializing KMeans clustering with 2 clusters...
2024-06-05 10:33:08.722 [main] INFO  hagrid.demand.DemandProcessor - Cluster 1: 325 features
2024-06-05 10:33:08.724 [main] INFO  hagrid.demand.DemandProcessor - Cluster 2: 325 features
2024-06-05 10:33:08.724 [main] INFO  hagrid.demand.DemandProcessor - Total number of clusters created: 2
2024-06-05 10:33:08.875 [main] INFO  hagrid.demand.DemandProcessor - Chart saved successfully at: phd/output/demand_clustering/ClusterResults_dhl_30519.png
2024-06-05 10:33:08.876 [main] INFO  hagrid.demand.DemandProcessor - Assigned Demand for new Carrier dhl_30519_0: 325
2024-06-05 10:33:08.876 [main] INFO  hagrid.demand.DemandProcessor - Assigned Demand for new Carrier dhl_30519_1: 325
2024-06-05 10:33:08.876 [main] INFO  hagrid.demand.DemandProcessor - Need for Split: dhl_30938: Number of Deliveries: 861
2024-06-05 10:33:08.877 [main] INFO  hagrid.demand.DemandProcessor - Initializing KMeans clustering with 2 clusters...
2024-06-05 10:33:08.894 [main] INFO  hagrid.demand.DemandProcessor - Cluster 1: 430 features
2024-06-05 10:33:08.894 [main] INFO  hagrid.demand.DemandProcessor - Cluster 2: 431 features
2024-06-05 10:33:08.895 [main] INFO  hagrid.demand.DemandProcessor - Total number of clusters created: 2
2024-06-05 10:33:08.984 [main] INFO  hagrid.demand.DemandProcessor - Chart saved successfully at: phd/output/demand_clustering/ClusterResults_dhl_30938.png
2024-06-05 10:33:08.984 [main] INFO  hagrid.demand.DemandProcessor - Assigned Demand for new Carrier dhl_30938_0: 430
2024-06-05 10:33:08.985 [main] INFO  hagrid.demand.DemandProcessor - Assigned Demand for new Carrier dhl_30938_1: 431
2024-06-05 10:33:08.986 [main] INFO  hagrid.demand.DemandProcessor - Need for Split: dhl_30916: Number of Deliveries: 945
2024-06-05 10:33:08.987 [main] INFO  hagrid.demand.DemandProcessor - Initializing KMeans clustering with 2 clusters...
2024-06-05 10:33:09.003 [main] INFO  hagrid.demand.DemandProcessor - Cluster 1: 472 features
2024-06-05 10:33:09.004 [main] INFO  hagrid.demand.DemandProcessor - Cluster 2: 473 features
2024-06-05 10:33:09.004 [main] INFO  hagrid.demand.DemandProcessor - Total number of clusters created: 2
2024-06-05 10:33:09.127 [main] INFO  hagrid.demand.DemandProcessor - Chart saved successfully at: phd/output/demand_clustering/ClusterResults_dhl_30916.png
2024-06-05 10:33:09.128 [main] INFO  hagrid.demand.DemandProcessor - Assigned Demand for new Carrier dhl_30916_0: 472
2024-06-05 10:33:09.128 [main] INFO  hagrid.demand.DemandProcessor - Assigned Demand for new Carrier dhl_30916_1: 473
2024-06-05 10:33:09.129 [main] INFO  hagrid.demand.DemandProcessor - Need for Split: ups_31275: Number of Deliveries: 729
2024-06-05 10:33:09.129 [main] INFO  hagrid.demand.DemandProcessor - Initializing KMeans clustering with 2 clusters...
2024-06-05 10:33:09.136 [main] INFO  hagrid.demand.DemandProcessor - Cluster 1: 365 features
2024-06-05 10:33:09.137 [main] INFO  hagrid.demand.DemandProcessor - Cluster 2: 364 features
2024-06-05 10:33:09.137 [main] INFO  hagrid.demand.DemandProcessor - Total number of clusters created: 2
2024-06-05 10:33:09.231 [main] INFO  hagrid.demand.DemandProcessor - Chart saved successfully at: phd/output/demand_clustering/ClusterResults_ups_31275.png
2024-06-05 10:33:09.232 [main] INFO  hagrid.demand.DemandProcessor - Assigned Demand for new Carrier ups_31275_0: 365
2024-06-05 10:33:09.232 [main] INFO  hagrid.demand.DemandProcessor - Assigned Demand for new Carrier ups_31275_1: 364
2024-06-05 10:33:09.233 [main] INFO  hagrid.demand.DemandProcessor - Need for Split: dhl_31303: Number of Deliveries: 1073
2024-06-05 10:33:09.233 [main] INFO  hagrid.demand.DemandProcessor - Initializing KMeans clustering with 2 clusters...
2024-06-05 10:33:09.243 [main] INFO  hagrid.demand.DemandProcessor - Cluster 1: 537 features
2024-06-05 10:33:09.244 [main] INFO  hagrid.demand.DemandProcessor - Cluster 2: 536 features
2024-06-05 10:33:09.244 [main] INFO  hagrid.demand.DemandProcessor - Total number of clusters created: 2
2024-06-05 10:33:09.338 [main] INFO  hagrid.demand.DemandProcessor - Chart saved successfully at: phd/output/demand_clustering/ClusterResults_dhl_31303.png
2024-06-05 10:33:09.339 [main] INFO  hagrid.demand.DemandProcessor - Assigned Demand for new Carrier dhl_31303_0: 537
2024-06-05 10:33:09.339 [main] INFO  hagrid.demand.DemandProcessor - Assigned Demand for new Carrier dhl_31303_1: 536
2024-06-05 10:33:09.341 [main] INFO  hagrid.demand.DemandProcessor - Need for Split: dhl_30952: Number of Deliveries: 692
2024-06-05 10:33:09.341 [main] INFO  hagrid.demand.DemandProcessor - Initializing KMeans clustering with 2 clusters...
2024-06-05 10:33:09.343 [main] INFO  hagrid.demand.DemandProcessor - Cluster 1: 346 features
2024-06-05 10:33:09.344 [main] INFO  hagrid.demand.DemandProcessor - Cluster 2: 346 features
2024-06-05 10:33:09.344 [main] INFO  hagrid.demand.DemandProcessor - Total number of clusters created: 2
2024-06-05 10:33:09.436 [main] INFO  hagrid.demand.DemandProcessor - Chart saved successfully at: phd/output/demand_clustering/ClusterResults_dhl_30952.png
2024-06-05 10:33:09.437 [main] INFO  hagrid.demand.DemandProcessor - Assigned Demand for new Carrier dhl_30952_0: 346
2024-06-05 10:33:09.437 [main] INFO  hagrid.demand.DemandProcessor - Assigned Demand for new Carrier dhl_30952_1: 346
2024-06-05 10:33:09.437 [main] INFO  hagrid.demand.DemandProcessor - Need for Split: dpd_30855: Number of Deliveries: 645
2024-06-05 10:33:09.439 [main] INFO  hagrid.demand.DemandProcessor - Initializing KMeans clustering with 2 clusters...
2024-06-05 10:33:09.442 [main] INFO  hagrid.demand.DemandProcessor - Cluster 1: 323 features
2024-06-05 10:33:09.442 [main] INFO  hagrid.demand.DemandProcessor - Cluster 2: 322 features
2024-06-05 10:33:09.442 [main] INFO  hagrid.demand.DemandProcessor - Total number of clusters created: 2
2024-06-05 10:33:09.516 [main] INFO  hagrid.demand.DemandProcessor - Chart saved successfully at: phd/output/demand_clustering/ClusterResults_dpd_30855.png
2024-06-05 10:33:09.517 [main] INFO  hagrid.demand.DemandProcessor - Assigned Demand for new Carrier dpd_30855_0: 323
2024-06-05 10:33:09.517 [main] INFO  hagrid.demand.DemandProcessor - Assigned Demand for new Carrier dpd_30855_1: 322
2024-06-05 10:33:09.517 [main] INFO  hagrid.demand.DemandProcessor - Need for Split: dhl_30855: Number of Deliveries: 1052
2024-06-05 10:33:09.519 [main] INFO  hagrid.demand.DemandProcessor - Initializing KMeans clustering with 2 clusters...
2024-06-05 10:33:09.523 [main] INFO  hagrid.demand.DemandProcessor - Cluster 1: 526 features
2024-06-05 10:33:09.523 [main] INFO  hagrid.demand.DemandProcessor - Cluster 2: 526 features
2024-06-05 10:33:09.524 [main] INFO  hagrid.demand.DemandProcessor - Total number of clusters created: 2
2024-06-05 10:33:09.622 [main] INFO  hagrid.demand.DemandProcessor - Chart saved successfully at: phd/output/demand_clustering/ClusterResults_dhl_30855.png
2024-06-05 10:33:09.623 [main] INFO  hagrid.demand.DemandProcessor - Assigned Demand for new Carrier dhl_30855_0: 526
2024-06-05 10:33:09.623 [main] INFO  hagrid.demand.DemandProcessor - Assigned Demand for new Carrier dhl_30855_1: 526
2024-06-05 10:33:09.624 [main] INFO  hagrid.demand.DemandProcessor - Need for Split: dhl_30559: Number of Deliveries: 682
2024-06-05 10:33:09.624 [main] INFO  hagrid.demand.DemandProcessor - Initializing KMeans clustering with 2 clusters...
2024-06-05 10:33:09.628 [main] INFO  hagrid.demand.DemandProcessor - Cluster 1: 341 features
2024-06-05 10:33:09.629 [main] INFO  hagrid.demand.DemandProcessor - Cluster 2: 341 features
2024-06-05 10:33:09.629 [main] INFO  hagrid.demand.DemandProcessor - Total number of clusters created: 2
2024-06-05 10:33:09.701 [main] INFO  hagrid.demand.DemandProcessor - Chart saved successfully at: phd/output/demand_clustering/ClusterResults_dhl_30559.png
2024-06-05 10:33:09.702 [main] INFO  hagrid.demand.DemandProcessor - Assigned Demand for new Carrier dhl_30559_0: 341
2024-06-05 10:33:09.702 [main] INFO  hagrid.demand.DemandProcessor - Assigned Demand for new Carrier dhl_30559_1: 341
2024-06-05 10:33:09.703 [main] INFO  hagrid.demand.DemandProcessor - Need for Split: dpd_31535: Number of Deliveries: 641
2024-06-05 10:33:09.704 [main] INFO  hagrid.demand.DemandProcessor - Initializing KMeans clustering with 2 clusters...
2024-06-05 10:33:09.706 [main] INFO  hagrid.demand.DemandProcessor - Cluster 1: 320 features
2024-06-05 10:33:09.707 [main] INFO  hagrid.demand.DemandProcessor - Cluster 2: 321 features
2024-06-05 10:33:09.707 [main] INFO  hagrid.demand.DemandProcessor - Total number of clusters created: 2
2024-06-05 10:33:09.775 [main] INFO  hagrid.demand.DemandProcessor - Chart saved successfully at: phd/output/demand_clustering/ClusterResults_dpd_31535.png
2024-06-05 10:33:09.776 [main] INFO  hagrid.demand.DemandProcessor - Assigned Demand for new Carrier dpd_31535_0: 320
2024-06-05 10:33:09.776 [main] INFO  hagrid.demand.DemandProcessor - Assigned Demand for new Carrier dpd_31535_1: 321
2024-06-05 10:33:09.777 [main] INFO  hagrid.demand.DemandProcessor - Need for Split: dhl_30890: Number of Deliveries: 1138
2024-06-05 10:33:09.779 [main] INFO  hagrid.demand.DemandProcessor - Initializing KMeans clustering with 2 clusters...
2024-06-05 10:33:09.781 [main] INFO  hagrid.demand.DemandProcessor - Cluster 1: 569 features
2024-06-05 10:33:09.781 [main] INFO  hagrid.demand.DemandProcessor - Cluster 2: 569 features
[...]
2024-06-05 17:37:55.483 [main] INFO  hagrid.demand.CarrierGenerator - fedex carrier services added. Number of services: 2
2024-06-05 17:37:55.517 [main] INFO  hagrid.demand.CarrierGenerator - ups carrier services added. Number of services: 2
2024-06-05 17:37:55.533 [main] INFO  hagrid.demand.CarrierGenerator - ups carrier services added. Number of services: 2
2024-06-05 17:37:55.574 [main] INFO  hagrid.demand.CarrierGenerator - ups carrier services added. Number of services: 2
2024-06-05 17:37:55.599 [main] INFO  hagrid.demand.CarrierGenerator - dpd carrier services added. Number of services: 2
2024-06-05 17:37:55.630 [main] INFO  hagrid.demand.CarrierGenerator - dpd carrier services added. Number of services: 2
2024-06-05 17:37:55.658 [main] INFO  hagrid.demand.CarrierGenerator - dpd carrier services added. Number of services: 2
2024-06-05 17:37:55.696 [main] INFO  hagrid.demand.CarrierGenerator - dpd carrier services added. Number of services: 2
2024-06-05 17:37:55.728 [main] INFO  hagrid.demand.CarrierGenerator - ups carrier services added. Number of services: 2
2024-06-05 17:37:55.764 [main] INFO  hagrid.demand.CarrierGenerator - ups carrier services added. Number of services: 2
2024-06-05 17:37:55.793 [main] INFO  hagrid.demand.CarrierGenerator - ups carrier services added. Number of services: 2
2024-06-05 17:37:55.867 [main] INFO  hagrid.demand.CarrierGenerator - fedex carrier services added. Number of services: 2
2024-06-05 17:37:55.902 [main] INFO  hagrid.demand.CarrierGenerator - amazon carrier services added. Number of services: 1
2024-06-05 17:37:55.916 [main] INFO  hagrid.demand.CarrierGenerator - fedex carrier services added. Number of services: 2
2024-06-05 17:37:55.959 [main] INFO  hagrid.demand.CarrierGenerator - amazon carrier services added. Number of services: 2
2024-06-05 17:37:56.004 [main] INFO  hagrid.demand.CarrierGenerator - amazon carrier services added. Number of services: 2
2024-06-05 17:37:56.035 [main] INFO  hagrid.demand.CarrierGenerator - amazon carrier services added. Number of services: 2
2024-06-05 17:37:56.054 [main] INFO  hagrid.demand.CarrierGenerator - dpd carrier services added. Number of services: 2
2024-06-05 17:37:56.076 [main] INFO  hagrid.demand.CarrierGenerator - fedex carrier services added. Number of services: 2
2024-06-05 17:37:56.110 [main] INFO  hagrid.demand.CarrierGenerator - amazon carrier services added. Number of services: 2
2024-06-05 17:37:56.154 [main] INFO  hagrid.demand.CarrierGenerator - fedex carrier services added. Number of services: 2
2024-06-05 17:37:56.171 [main] INFO  hagrid.demand.CarrierGenerator - fedex carrier services added. Number of services: 2
2024-06-05 17:37:56.232 [main] INFO  hagrid.demand.CarrierGenerator - amazon carrier services added. Number of services: 2
2024-06-05 17:37:56.259 [main] INFO  hagrid.demand.CarrierGenerator - fedex carrier services added. Number of services: 2
2024-06-05 17:37:56.309 [main] INFO  hagrid.demand.CarrierGenerator - dpd carrier services added. Number of services: 2
2024-06-05 17:37:56.356 [main] INFO  hagrid.demand.CarrierGenerator - gls carrier services added. Number of services: 2
2024-06-05 17:37:56.470 [main] INFO  hagrid.demand.CarrierGenerator - amazon carrier services added. Number of services: 2
2024-06-05 17:37:56.535 [main] INFO  hagrid.demand.CarrierGenerator - dpd carrier services added. Number of services: 2
2024-06-05 17:37:56.555 [main] INFO  hagrid.demand.CarrierGenerator - fedex carrier services added. Number of services: 2
2024-06-05 17:37:56.657 [main] INFO  hagrid.demand.CarrierGenerator - ups carrier services added. Number of services: 2
2024-06-05 17:37:56.689 [main] INFO  hagrid.demand.CarrierGenerator - fedex carrier services added. Number of services: 2
2024-06-05 17:37:56.738 [main] INFO  hagrid.demand.CarrierGenerator - gls carrier services added. Number of services: 2
2024-06-05 17:37:56.789 [main] INFO  hagrid.demand.CarrierGenerator - ups carrier services added. Number of services: 2
2024-06-05 17:37:56.816 [main] INFO  hagrid.demand.CarrierGenerator - amazon carrier services added. Number of services: 2
2024-06-05 17:37:56.842 [main] INFO  hagrid.demand.CarrierGenerator - amazon carrier services added. Number of services: 2
2024-06-05 17:37:56.863 [main] INFO  hagrid.demand.CarrierGenerator - amazon carrier services added. Number of services: 2
2024-06-05 17:37:56.897 [main] INFO  hagrid.demand.CarrierGenerator - fedex carrier services added. Number of services: 2
2024-06-05 17:37:56.931 [main] INFO  hagrid.demand.CarrierGenerator - gls carrier services added. Number of services: 2
2024-06-05 17:37:56.984 [main] INFO  hagrid.demand.CarrierGenerator - gls carrier services added. Number of services: 2
2024-06-05 17:37:57.006 [main] INFO  hagrid.demand.CarrierGenerator - gls carrier services added. Number of services: 2
2024-06-05 17:37:57.042 [main] INFO  hagrid.demand.CarrierGenerator - amazon carrier services added. Number of services: 1
2024-06-05 17:37:57.077 [main] INFO  hagrid.demand.CarrierGenerator - fedex carrier services added. Number of services: 2
2024-06-05 17:37:57.097 [main] INFO  hagrid.demand.CarrierGenerator - gls carrier services added. Number of services: 2
2024-06-05 17:37:57.112 [main] INFO  hagrid.demand.CarrierGenerator - gls carrier services added. Number of services: 2
2024-06-05 17:37:57.137 [main] INFO  hagrid.demand.CarrierGenerator - gls carrier services added. Number of services: 2
2024-06-05 17:37:57.170 [main] INFO  hagrid.demand.CarrierGenerator - hermes carrier services added. Number of services: 2
2024-06-05 17:37:57.458 [main] INFO  hagrid.demand.CarrierGenerator - fedex carrier services added. Number of services: 2
2024-06-05 17:37:57.513 [main] INFO  hagrid.demand.CarrierGenerator - hermes carrier services added. Number of services: 2
2024-06-05 17:37:57.541 [main] INFO  hagrid.demand.CarrierGenerator - hermes carrier services added. Number of services: 2
2024-06-05 17:37:57.564 [main] INFO  hagrid.demand.CarrierGenerator - hermes carrier services added. Number of services: 2
2024-06-05 17:37:57.626 [main] INFO  hagrid.demand.CarrierGenerator - ups carrier services added. Number of services: 2
2024-06-05 17:37:57.646 [main] INFO  hagrid.demand.CarrierGenerator - hermes carrier services added. Number of services: 2
2024-06-05 17:37:57.683 [main] INFO  hagrid.demand.CarrierGenerator - hermes carrier services added. Number of services: 2
2024-06-05 17:37:57.702 [main] INFO  hagrid.demand.CarrierGenerator - hermes carrier services added. Number of services: 2
2024-06-05 17:37:57.719 [main] INFO  hagrid.demand.CarrierGenerator - hermes carrier services added. Number of services: 2
2024-06-05 17:37:57.734 [main] INFO  hagrid.demand.CarrierGenerator - hermes carrier services added. Number of services: 2
2024-06-05 17:37:57.781 [main] INFO  hagrid.demand.CarrierGenerator - dhl carrier services added. Number of services: 2
2024-06-05 17:37:57.813 [main] INFO  hagrid.demand.CarrierGenerator - ups carrier services added. Number of services: 2
2024-06-05 17:37:57.838 [main] INFO  hagrid.demand.CarrierGenerator - ups carrier services added. Number of services: 2
2024-06-05 17:37:57.868 [main] INFO  hagrid.demand.CarrierGenerator - ups carrier services added. Number of services: 2
2024-06-05 17:37:57.906 [main] INFO  hagrid.demand.CarrierGenerator - ups carrier services added. Number of services: 2
2024-06-05 17:37:57.966 [main] INFO  hagrid.demand.CarrierGenerator - dhl carrier services added. Number of services: 2
2024-06-05 17:37:58.020 [main] INFO  hagrid.demand.CarrierGenerator - amazon carrier services added. Number of services: 2
2024-06-05 17:37:58.101 [main] INFO  hagrid.demand.CarrierGenerator - dhl carrier services added. Number of services: 2
2024-06-05 17:37:58.197 [main] INFO  hagrid.demand.CarrierGenerator - ups carrier services added. Number of services: 2
2024-06-05 17:37:58.253 [main] INFO  hagrid.demand.CarrierGenerator - fedex carrier services added. Number of services: 2
2024-06-05 17:37:58.306 [main] INFO  hagrid.demand.CarrierGenerator - fedex carrier services added. Number of services: 2
2024-06-05 17:37:58.347 [main] INFO  hagrid.demand.CarrierGenerator - hermes carrier services added. Number of services: 2
2024-06-05 17:37:58.374 [main] INFO  hagrid.demand.CarrierGenerator - fedex carrier services added. Number of services: 2
2024-06-05 17:37:58.399 [main] INFO  hagrid.demand.CarrierGenerator - fedex carrier services added. Number of services: 2
2024-06-05 17:37:58.433 [main] INFO  hagrid.demand.CarrierGenerator - ups carrier services added. Number of services: 2
2024-06-05 17:37:58.454 [main] INFO  hagrid.demand.CarrierGenerator - fedex carrier services added. Number of services: 2
2024-06-05 17:37:58.484 [main] INFO  hagrid.demand.CarrierGenerator - fedex carrier services added. Number of services: 2
2024-06-05 17:37:58.548 [main] INFO  hagrid.demand.CarrierGenerator - fedex carrier services added. Number of services: 2
2024-06-05 17:37:58.630 [main] INFO  hagrid.demand.CarrierGenerator - hermes carrier services added. Number of services: 2
2024-06-05 17:37:58.714 [main] INFO  hagrid.demand.CarrierGenerator - fedex carrier services added. Number of services: 2
2024-06-05 17:37:58.786 [main] INFO  hagrid.demand.CarrierGenerator - ups carrier services added. Number of services: 2
2024-06-05 17:37:58.850 [main] INFO  hagrid.demand.CarrierGenerator - hermes carrier services added. Number of services: 2
2024-06-05 17:37:58.928 [main] INFO  hagrid.demand.CarrierGenerator - dpd carrier services added. Number of services: 2
2024-06-05 17:37:58.991 [main] INFO  hagrid.demand.CarrierGenerator - dpd carrier services added. Number of services: 2
2024-06-05 17:37:59.124 [main] INFO  hagrid.demand.CarrierGenerator - dhl carrier services added. Number of services: 2
2024-06-05 17:37:59.137 [main] INFO  hagrid.demand.CarrierGenerator - hermes carrier services added. Number of services: 2
2024-06-05 17:37:59.177 [main] INFO  hagrid.demand.CarrierGenerator - fedex carrier services added. Number of services: 2
2024-06-05 17:37:59.253 [main] INFO  hagrid.demand.CarrierGenerator - dhl carrier services added. Number of services: 2
2024-06-05 17:37:59.328 [main] INFO  hagrid.demand.CarrierGenerator - dhl carrier services added. Number of services: 2
2024-06-05 17:37:59.463 [main] INFO  hagrid.demand.CarrierGenerator - amazon carrier services added. Number of services: 2
2024-06-05 17:37:59.549 [main] INFO  hagrid.demand.CarrierGenerator - ups carrier services added. Number of services: 2
2024-06-05 17:37:59.634 [main] INFO  hagrid.demand.CarrierGenerator - dhl carrier services added. Number of services: 2
2024-06-05 17:37:59.696 [main] INFO  hagrid.demand.CarrierGenerator - amazon carrier services added. Number of services: 2
2024-06-05 17:37:59.764 [main] INFO  hagrid.demand.CarrierGenerator - dhl carrier services added. Number of services: 2
2024-06-05 17:37:59.847 [main] INFO  hagrid.demand.CarrierGenerator - ups carrier services added. Number of services: 2
2024-06-05 17:37:59.923 [main] INFO  hagrid.demand.CarrierGenerator - ups carrier services added. Number of services: 2
2024-06-05 17:38:00.001 [main] INFO  hagrid.demand.CarrierGenerator - ups carrier services added. Number of services: 2
2024-06-05 17:38:00.087 [main] INFO  hagrid.demand.CarrierGenerator - dhl carrier services added. Number of services: 2
2024-06-05 17:38:00.213 [main] INFO  hagrid.demand.CarrierGenerator - dhl carrier services added. Number of services: 2
2024-06-05 17:38:00.295 [main] INFO  hagrid.demand.CarrierGenerator - dhl carrier services added. Number of services: 2
2024-06-05 17:38:00.347 [main] INFO  hagrid.demand.CarrierGenerator - hermes carrier services added. Number of services: 2
2024-06-05 17:38:00.395 [main] INFO  hagrid.demand.CarrierGenerator - hermes carrier services added. Number of services: 2
2024-06-05 17:38:00.438 [main] INFO  hagrid.demand.CarrierGenerator - hermes carrier services added. Number of services: 2
2024-06-05 17:38:00.554 [main] INFO  hagrid.demand.CarrierGenerator - ups carrier services added. Number of services: 2
2024-06-05 17:38:00.619 [main] INFO  hagrid.demand.CarrierGenerator - ups carrier services added. Number of services: 2
2024-06-05 17:38:00.672 [main] INFO  hagrid.demand.CarrierGenerator - ups carrier services added. Number of services: 2
2024-06-05 17:38:00.723 [main] INFO  hagrid.demand.CarrierGenerator - ups carrier services added. Number of services: 2
2024-06-05 17:38:00.771 [main] INFO  hagrid.demand.CarrierGenerator - fedex carrier services added. Number of services: 2
2024-06-05 17:38:00.868 [main] INFO  hagrid.demand.CarrierGenerator - dhl carrier services added. Number of services: 2
2024-06-05 17:38:00.977 [main] INFO  hagrid.demand.CarrierGenerator - amazon carrier services added. Number of services: 2
2024-06-05 17:38:01.015 [main] INFO  hagrid.demand.CarrierGenerator - ups carrier services added. Number of services: 2
2024-06-05 17:38:01.083 [main] INFO  hagrid.demand.CarrierGenerator - ups carrier services added. Number of services: 2
2024-06-05 17:38:01.169 [main] INFO  hagrid.demand.CarrierGenerator - dhl carrier services added. Number of services: 2
2024-06-05 17:38:01.311 [main] INFO  hagrid.demand.CarrierGenerator - dhl carrier services added. Number of services: 2
2024-06-05 17:38:01.366 [main] INFO  hagrid.demand.CarrierGenerator - dhl carrier services added. Number of services: 2
2024-06-05 17:38:01.438 [main] INFO  hagrid.demand.CarrierGenerator - hermes carrier services added. Number of services: 2
2024-06-05 17:38:01.476 [main] INFO  hagrid.demand.CarrierGenerator - fedex carrier services added. Number of services: 2
2024-06-05 17:38:01.551 [main] INFO  hagrid.demand.CarrierGenerator - amazon carrier services added. Number of services: 2
2024-06-05 17:38:01.587 [main] INFO  hagrid.demand.CarrierGenerator - fedex carrier services added. Number of services: 2
2024-06-05 17:38:01.628 [main] INFO  hagrid.demand.CarrierGenerator - fedex carrier services added. Number of services: 2
2024-06-05 17:38:01.782 [main] INFO  hagrid.demand.CarrierGenerator - fedex carrier services added. Number of services: 2
2024-06-05 17:38:01.827 [main] INFO  hagrid.demand.CarrierGenerator - amazon carrier services added. Number of services: 2
2024-06-05 17:38:01.938 [main] INFO  hagrid.demand.CarrierGenerator - dpd carrier services added. Number of services: 2
2024-06-05 17:38:02.026 [main] INFO  hagrid.demand.CarrierGenerator - ups carrier services added. Number of services: 2
2024-06-05 17:38:02.165 [main] INFO  hagrid.demand.CarrierGenerator - gls carrier services added. Number of services: 2
2024-06-05 17:38:02.256 [main] INFO  hagrid.demand.CarrierGenerator - ups carrier services added. Number of services: 2
2024-06-05 17:38:02.286 [main] INFO  hagrid.demand.CarrierGenerator - fedex carrier services added. Number of services: 2
2024-06-05 17:38:02.341 [main] INFO  hagrid.demand.CarrierGenerator - hermes carrier services added. Number of services: 2
2024-06-05 17:38:02.460 [main] INFO  hagrid.demand.CarrierGenerator - dhl carrier services added. Number of services: 2
2024-06-05 17:38:02.515 [main] INFO  hagrid.demand.CarrierGenerator - amazon carrier services added. Number of services: 2
2024-06-05 17:38:02.544 [main] INFO  hagrid.demand.CarrierGenerator - amazon carrier services added. Number of services: 2
2024-06-05 17:38:02.619 [main] INFO  hagrid.demand.CarrierGenerator - fedex carrier services added. Number of services: 2
2024-06-05 17:38:02.654 [main] INFO  hagrid.demand.CarrierGenerator - amazon carrier services added. Number of services: 2
2024-06-05 17:38:02.770 [main] INFO  hagrid.demand.CarrierGenerator - dhl carrier services added. Number of services: 2
2024-06-05 17:38:02.804 [main] INFO  hagrid.demand.CarrierGenerator - fedex carrier services added. Number of services: 2
2024-06-05 17:38:02.838 [main] INFO  hagrid.demand.CarrierGenerator - fedex carrier services added. Number of services: 2
2024-06-05 17:38:02.879 [main] INFO  hagrid.demand.CarrierGenerator - amazon carrier services added. Number of services: 2
2024-06-05 17:38:02.986 [main] INFO  hagrid.demand.CarrierGenerator - amazon carrier services added. Number of services: 2
2024-06-05 17:38:03.008 [main] INFO  hagrid.demand.CarrierGenerator - fedex carrier services added. Number of services: 2
2024-06-05 17:38:03.048 [main] INFO  hagrid.demand.CarrierGenerator - gls carrier services added. Number of services: 2
2024-06-05 17:38:03.080 [main] INFO  hagrid.demand.CarrierGenerator - amazon carrier services added. Number of services: 2
2024-06-05 17:38:03.098 [main] INFO  hagrid.demand.CarrierGenerator - gls carrier services added. Number of services: 2
2024-06-05 17:38:03.133 [main] INFO  hagrid.demand.CarrierGenerator - gls carrier services added. Number of services: 2
2024-06-05 17:38:03.171 [main] INFO  hagrid.demand.CarrierGenerator - fedex carrier services added. Number of services: 2
2024-06-05 17:38:03.303 [main] INFO  hagrid.demand.CarrierGenerator - dhl carrier services added. Number of services: 2
2024-06-05 17:38:03.424 [main] INFO  hagrid.demand.CarrierGenerator - dpd carrier services added. Number of services: 2
2024-06-05 17:38:03.542 [main] INFO  hagrid.demand.CarrierGenerator - dhl carrier services added. Number of services: 2
2024-06-05 17:38:03.579 [main] INFO  hagrid.demand.CarrierGenerator - hermes carrier services added. Number of services: 2
2024-06-05 17:38:03.624 [main] INFO  hagrid.demand.CarrierGenerator - hermes carrier services added. Number of services: 2
2024-06-05 17:38:03.732 [main] INFO  hagrid.demand.CarrierGenerator - dhl carrier services added. Number of services: 2
2024-06-05 17:38:04.195 [main] INFO  hagrid.demand.CarrierGenerator - dhl carrier services added. Number of services: 2
2024-06-05 17:38:04.297 [main] INFO  hagrid.demand.CarrierGenerator - fedex carrier services added. Number of services: 2
2024-06-05 17:38:04.338 [main] INFO  hagrid.demand.CarrierGenerator - hermes carrier services added. Number of services: 2
2024-06-05 17:38:04.476 [main] INFO  hagrid.demand.CarrierGenerator - dhl carrier services added. Number of services: 2
2024-06-05 17:38:04.581 [main] INFO  hagrid.demand.CarrierGenerator - dpd carrier services added. Number of services: 2
2024-06-05 17:38:04.687 [main] INFO  hagrid.demand.CarrierGenerator - dhl carrier services added. Number of services: 2
2024-06-05 17:38:04.780 [main] INFO  hagrid.demand.CarrierGenerator - dhl carrier services added. Number of services: 2
2024-06-05 17:38:04.909 [main] INFO  hagrid.demand.CarrierGenerator - dhl carrier services added. Number of services: 2
2024-06-05 17:38:05.008 [main] INFO  hagrid.demand.CarrierGenerator - dhl carrier services added. Number of services: 2
2024-06-05 17:38:05.086 [main] INFO  hagrid.demand.CarrierGenerator - hermes carrier services added. Number of services: 2
2024-06-05 17:38:05.156 [main] INFO  hagrid.demand.CarrierGenerator - gls carrier services added. Number of services: 2
2024-06-05 17:38:05.252 [main] INFO  hagrid.demand.CarrierGenerator - dhl carrier services added. Number of services: 2
2024-06-05 17:38:05.427 [main] INFO  hagrid.demand.CarrierGenerator - dhl carrier services added. Number of services: 3
2024-06-05 17:38:05.521 [main] INFO  hagrid.demand.CarrierGenerator - fedex carrier services added. Number of services: 2
2024-06-05 17:38:05.602 [main] INFO  hagrid.demand.CarrierGenerator - hermes carrier services added. Number of services: 2
2024-06-05 17:38:05.740 [main] INFO  hagrid.demand.CarrierGenerator - dpd carrier services added. Number of services: 2
2024-06-05 17:38:05.791 [main] INFO  hagrid.demand.CarrierGenerator - gls carrier services added. Number of services: 2
2024-06-05 17:38:06.389 [main] INFO  hagrid.demand.CarrierGenerator - fedex carrier services added. Number of services: 2
