2024-06-20 16:00:44.942 [main] INFO  hagrid.App - Starting application...
2024-06-20 16:00:45.204 [main] INFO  org.matsim.core.utils.io.IOUtils - Resolved phd/input/config.xml to phd\input\config.xml
2024-06-20 16:00:45.216 [main] INFO  org.matsim.core.config.Config - setting context to [file:/C:/Users/bienzeisler/Documents/GitHub/HAGRID/]
2024-06-20 16:00:45.323 [main] INFO  org.hibernate.validator.internal.util.Version - HV000001: Hibernate Validator 7.0.1.Final
2024-06-20 16:00:45.639 [main] INFO  org.matsim.core.utils.io.MatsimXmlParser - starting to parse xml from url file:/C:/Users/bienzeisler/Documents/GitHub/HAGRID/phd/input/config.xml ...
2024-06-20 16:00:45.707 [main] INFO  org.matsim.core.config.ConfigReader - using config_v2-reader
2024-06-20 16:00:45.711 [main] INFO  org.matsim.core.utils.io.MatsimXmlParser - Trying to load http://www.matsim.org/files/dtd/config_v2.dtd. In some cases (e.g. network interface up but no connection), this may take a bit.
2024-06-20 16:00:45.938 [main] INFO  org.matsim.core.config.groups.GlobalConfigGroup - setting number of threads to: 2
2024-06-20 16:00:45.972 [main] WARN  org.matsim.core.config.groups.ScoringConfigGroup - Setting pathSizeLogitBeta different from zero is experimental.  KN, Sep'08
2024-06-20 16:00:45.972 [main] INFO  org.matsim.core.config.groups.ScoringConfigGroup - scoring parameters for subpopulation null were just replaced.
2024-06-20 16:00:46.000 [main] WARN  org.matsim.core.config.groups.RoutingConfigGroup - The first mode routing (= teleported mode) params that are explicitly defined clear the default mode routing (= teleported mode) params.  If you want to avoid this 
2024-06-20 16:00:46.001 [main] WARN  org.matsim.core.config.groups.RoutingConfigGroup -     warning, use clearTeleportedModeParams(true) in code, and "clearDefaultTeleportedModeParams"=true in xml config.
2024-06-20 16:00:46.024 [main] INFO  org.matsim.core.config.Config - setting context to [file:/C:/Users/bienzeisler/Documents/GitHub/HAGRID/phd/input/config.xml]
2024-06-20 16:00:46.105 [main] INFO  org.matsim.core.scenario.ScenarioLoaderImpl - no facilities file set in config, therefore not loading any facilities.  This is not a problem except if you are using facilities
2024-06-20 16:00:46.109 [main] INFO  org.matsim.core.scenario.ScenarioLoaderImpl - no facility-attributes file set in config, not loading any facility attributes
2024-06-20 16:00:46.112 [main] INFO  org.matsim.core.scenario.ScenarioLoaderImpl - no population file set in config, not able to load population
2024-06-20 16:00:46.114 [main] INFO  org.matsim.core.scenario.ScenarioLoaderImpl - no person-attributes file set in config, not loading any person attributes
2024-06-20 16:00:46.114 [main] INFO  org.matsim.core.scenario.ScenarioLoaderImpl - no households file set in config, not loading households
2024-06-20 16:00:46.117 [main] INFO  org.matsim.core.scenario.ScenarioLoaderImpl - no transit schedule file set in config, not loading any transit schedule
2024-06-20 16:00:46.118 [main] INFO  org.matsim.core.scenario.ScenarioLoaderImpl - no transit vehicles file set in config, not loading any transit vehicles
2024-06-20 16:00:46.407 [main] INFO  hagrid.App - Initializing NetworkProcessor...
2024-06-20 16:00:46.411 [main] INFO  hagrid.App - Starting network processing...
2024-06-20 16:00:46.411 [main] INFO  hagrid.demand.NetworkProcessor - Starting network processing...
2024-06-20 16:00:46.446 [main] INFO  hagrid.demand.NetworkProcessor - Reading the network file from path: phd/input/reduced_network.xml.gz
2024-06-20 16:00:46.454 [main] INFO  org.matsim.core.utils.io.MatsimXmlParser - starting to parse xml from file phd/input/reduced_network.xml.gz ...
2024-06-20 16:00:46.455 [main] INFO  org.matsim.core.utils.io.IOUtils - Resolved phd/input/reduced_network.xml.gz to phd\input\reduced_network.xml.gz
2024-06-20 16:00:46.734 [main] INFO  org.matsim.core.network.io.MatsimNetworkReader - using network_v2-reader.
2024-06-20 16:00:46.734 [main] INFO  org.matsim.core.utils.io.MatsimXmlParser - Trying to load http://www.matsim.org/files/dtd/network_v2.dtd. In some cases (e.g. network interface up but no connection), this may take a bit.
2024-06-20 16:00:46.780 [main] INFO  org.matsim.core.network.NetworkImpl -  node # 1
2024-06-20 16:00:46.787 [main] INFO  org.matsim.core.network.NetworkImpl -  node # 4
2024-06-20 16:00:46.791 [main] INFO  org.matsim.core.network.NetworkImpl -  node # 16
2024-06-20 16:00:46.793 [main] INFO  org.matsim.core.network.NetworkImpl -  node # 64
2024-06-20 16:00:46.806 [main] INFO  org.matsim.core.network.NetworkImpl -  node # 256
2024-06-20 16:00:46.846 [main] INFO  org.matsim.core.network.NetworkImpl -  node # 1024
2024-06-20 16:00:46.907 [main] INFO  org.matsim.core.network.NetworkImpl -  node # 4096
2024-06-20 16:00:47.041 [main] INFO  org.matsim.core.network.NetworkImpl -  node # 16384
2024-06-20 16:00:47.078 [main] INFO  org.matsim.core.network.NetworkImpl -  link # 1
2024-06-20 16:00:47.082 [main] INFO  org.matsim.core.network.NetworkImpl -  link # 4
2024-06-20 16:00:47.087 [main] INFO  org.matsim.core.network.NetworkImpl -  link # 16
2024-06-20 16:00:47.099 [main] INFO  org.matsim.core.network.NetworkImpl -  link # 64
2024-06-20 16:00:47.149 [main] INFO  org.matsim.core.network.NetworkImpl -  link # 256
2024-06-20 16:00:47.241 [main] INFO  org.matsim.core.network.NetworkImpl -  link # 1024
2024-06-20 16:00:47.247 [main] WARN  org.matsim.api.core.v01.network.Link - length=0.0 of link id 1185132 may cause problems
2024-06-20 16:00:47.247 [main] WARN  org.matsim.api.core.v01.network.Link -  Future occurences of this logging statement are suppressed.
2024-06-20 16:00:47.422 [main] INFO  org.matsim.core.network.NetworkImpl -  link # 4096
2024-06-20 16:00:47.837 [main] INFO  org.matsim.core.network.NetworkImpl -  link # 16384
2024-06-20 16:00:47.938 [main] INFO  hagrid.demand.NetworkProcessor - Adjusting link lengths and free speeds...
2024-06-20 16:00:47.947 [main] INFO  hagrid.demand.NetworkProcessor - Link adjustments completed.
2024-06-20 16:00:47.948 [main] INFO  hagrid.demand.NetworkProcessor - Filtering network to include only car mode links...
2024-06-20 16:00:47.949 [main] INFO  org.matsim.core.config.Config - setting context to [file:/C:/Users/bienzeisler/Documents/GitHub/HAGRID/]
2024-06-20 16:00:47.956 [main] INFO  org.matsim.core.network.NetworkImpl -  node # 1
2024-06-20 16:00:47.956 [main] INFO  org.matsim.core.network.NetworkImpl -  node # 4
2024-06-20 16:00:47.958 [main] INFO  org.matsim.core.network.NetworkImpl -  node # 16
2024-06-20 16:00:47.958 [main] INFO  org.matsim.core.network.NetworkImpl -  node # 64
2024-06-20 16:00:47.959 [main] INFO  org.matsim.core.network.NetworkImpl -  node # 256
2024-06-20 16:00:47.961 [main] INFO  org.matsim.core.network.NetworkImpl -  node # 1024
2024-06-20 16:00:47.967 [main] INFO  org.matsim.core.network.NetworkImpl -  node # 4096
2024-06-20 16:00:47.987 [main] INFO  org.matsim.core.network.NetworkImpl -  node # 16384
2024-06-20 16:00:47.989 [main] INFO  org.matsim.core.network.NetworkImpl -  link # 1
2024-06-20 16:00:47.990 [main] INFO  org.matsim.core.network.NetworkImpl -  link # 4
2024-06-20 16:00:47.991 [main] INFO  org.matsim.core.network.NetworkImpl -  link # 16
2024-06-20 16:00:47.994 [main] INFO  org.matsim.core.network.NetworkImpl -  link # 64
2024-06-20 16:00:47.998 [main] INFO  org.matsim.core.network.NetworkImpl -  link # 256
2024-06-20 16:00:48.005 [main] INFO  org.matsim.core.network.NetworkImpl -  link # 1024
2024-06-20 16:00:48.017 [main] INFO  org.matsim.core.network.NetworkImpl -  link # 4096
2024-06-20 16:00:48.098 [main] INFO  org.matsim.core.network.NetworkImpl -  link # 16384
2024-06-20 16:00:48.123 [main] INFO  hagrid.demand.NetworkProcessor - Car mode network filtering completed.
2024-06-20 16:00:48.123 [main] INFO  hagrid.demand.NetworkProcessor - Creating parcel service network based on custom criteria...
2024-06-20 16:00:48.123 [main] INFO  org.matsim.core.config.Config - setting context to [file:/C:/Users/bienzeisler/Documents/GitHub/HAGRID/]
2024-06-20 16:00:48.146 [main] INFO  org.matsim.core.network.NetworkImpl -  node # 1
2024-06-20 16:00:48.148 [main] INFO  org.matsim.core.network.NetworkImpl -  node # 4
2024-06-20 16:00:48.149 [main] INFO  org.matsim.core.network.NetworkImpl -  node # 16
2024-06-20 16:00:48.151 [main] INFO  org.matsim.core.network.NetworkImpl -  node # 64
2024-06-20 16:00:48.152 [main] INFO  org.matsim.core.network.NetworkImpl -  node # 256
2024-06-20 16:00:48.153 [main] INFO  org.matsim.core.network.NetworkImpl -  node # 1024
2024-06-20 16:00:48.154 [main] INFO  org.matsim.core.network.NetworkImpl -  node # 4096
2024-06-20 16:00:48.158 [main] INFO  hagrid.demand.NetworkProcessor - Total number of links in the carFilteredNetwork: 19063
2024-06-20 16:00:48.158 [main] INFO  org.matsim.core.network.NetworkImpl -  link # 1
2024-06-20 16:00:48.158 [main] INFO  org.matsim.core.network.NetworkImpl -  link # 4
2024-06-20 16:00:48.158 [main] INFO  org.matsim.core.network.NetworkImpl -  link # 16
2024-06-20 16:00:48.158 [main] INFO  org.matsim.core.network.NetworkImpl -  link # 64
2024-06-20 16:00:48.158 [main] INFO  org.matsim.core.network.NetworkImpl -  link # 256
2024-06-20 16:00:48.158 [main] INFO  org.matsim.core.network.NetworkImpl -  link # 1024
2024-06-20 16:00:48.175 [main] INFO  org.matsim.core.network.NetworkImpl -  link # 4096
2024-06-20 16:00:48.206 [main] INFO  org.matsim.core.network.NetworkImpl -  link # 16384
2024-06-20 16:00:48.206 [main] INFO  hagrid.demand.NetworkProcessor - Parcel service network created successfully with 18730 links added.
2024-06-20 16:00:48.213 [main] INFO  hagrid.demand.NetworkProcessor - Difference in number of links between carFilteredNetwork and parcel service network: 333
2024-06-20 16:00:48.213 [main] INFO  hagrid.App - Network processing completed. Subnetworks created.
2024-06-20 16:00:48.214 [main] INFO  hagrid.App - Initializing LogisticsDataProcessor...
2024-06-20 16:00:48.215 [main] INFO  hagrid.App - Starting logistics data processing...
2024-06-20 16:00:48.216 [main] INFO  hagrid.demand.LogisticsDataProcessor - Reading logistics data...
2024-06-20 16:00:48.216 [main] INFO  hagrid.demand.LogisticsDataProcessor - Reading hub data from file: phd/input/hubs/KEP-hubs_v3.csv
2024-06-20 16:00:48.217 [main] INFO  hagrid.demand.LogisticsDataProcessor - Reading data from file: phd/input/hubs/KEP-hubs_v3.csv
2024-06-20 16:00:48.232 [main] INFO  org.matsim.core.network.NetworkImpl - building LinkQuadTree for nodes: xrange(286579.5670514173,953227.577157235); yrange(5242845.444958333,6018233.358636351)
2024-06-20 16:00:48.273 [main] INFO  org.matsim.core.network.NetworkImpl - Building LinkQuadTree took 0.049 seconds.
2024-06-20 16:00:48.298 [main] INFO  hagrid.demand.LogisticsDataProcessor - Read 25 entries from file: phd/input/hubs/KEP-hubs_v3.csv
2024-06-20 16:00:48.298 [main] INFO  hagrid.demand.LogisticsDataProcessor - Reading parcel locker data from file: phd/input/hubs/standorte_von_dhl.de.csv
2024-06-20 16:00:48.298 [main] INFO  hagrid.demand.LogisticsDataProcessor - Reading data from file: phd/input/hubs/standorte_von_dhl.de.csv
2024-06-20 16:00:50.706 [main] INFO  hagrid.demand.LogisticsDataProcessor - Read 47 entries from file: phd/input/hubs/standorte_von_dhl.de.csv
2024-06-20 16:00:50.706 [main] INFO  hagrid.demand.LogisticsDataProcessor - Reading shipping point data from folder: phd/input/hubs/standorte_von_paket.net/
2024-06-20 16:00:50.707 [main] INFO  hagrid.demand.LogisticsDataProcessor - Reading data from file: phd/input/hubs/standorte_von_paket.net/dhl_paketnet_list.csv
2024-06-20 16:00:50.825 [main] INFO  hagrid.demand.LogisticsDataProcessor - Read 301 entries from file: phd/input/hubs/standorte_von_paket.net/dhl_paketnet_list.csv
2024-06-20 16:00:50.826 [main] INFO  hagrid.demand.LogisticsDataProcessor - Reading data from file: phd/input/hubs/standorte_von_paket.net/dpd_paketnet_list.csv
2024-06-20 16:00:50.857 [main] INFO  hagrid.demand.LogisticsDataProcessor - Read 95 entries from file: phd/input/hubs/standorte_von_paket.net/dpd_paketnet_list.csv
2024-06-20 16:00:50.857 [main] INFO  hagrid.demand.LogisticsDataProcessor - Reading data from file: phd/input/hubs/standorte_von_paket.net/gls_paketnet_list.csv
2024-06-20 16:00:50.883 [main] INFO  hagrid.demand.LogisticsDataProcessor - Read 92 entries from file: phd/input/hubs/standorte_von_paket.net/gls_paketnet_list.csv
2024-06-20 16:00:50.884 [main] INFO  hagrid.demand.LogisticsDataProcessor - Reading data from file: phd/input/hubs/standorte_von_paket.net/hermes_paketnet_list.csv
2024-06-20 16:00:50.956 [main] INFO  hagrid.demand.LogisticsDataProcessor - Read 200 entries from file: phd/input/hubs/standorte_von_paket.net/hermes_paketnet_list.csv
2024-06-20 16:00:50.956 [main] INFO  hagrid.demand.LogisticsDataProcessor - Reading data from file: phd/input/hubs/standorte_von_paket.net/ups_paketnet_list.csv
2024-06-20 16:00:50.972 [main] INFO  hagrid.demand.LogisticsDataProcessor - Read 52 entries from file: phd/input/hubs/standorte_von_paket.net/ups_paketnet_list.csv
2024-06-20 16:00:50.973 [main] INFO  hagrid.demand.LogisticsDataProcessor - Loading carrier vehicle types...
2024-06-20 16:00:50.976 [main] INFO  org.matsim.freight.carriers.CarrierVehicleTypeReader - With early carrier vehicle type file formats, there will be an expected exception in the following.
2024-06-20 16:00:50.977 [main] INFO  org.matsim.core.utils.io.MatsimXmlParser - starting to parse xml from file phd/input/HAGRID_vehicleTypes.xml ...
2024-06-20 16:00:50.977 [main] INFO  org.matsim.core.utils.io.IOUtils - Resolved phd/input/HAGRID_vehicleTypes.xml to phd\input\HAGRID_vehicleTypes.xml
2024-06-20 16:00:51.073 [main] INFO  org.matsim.core.utils.io.MatsimXmlParser - Trying to load http://www.matsim.org/files/dtd/vehicleDefinitions_v2.0.xsd. In some cases (e.g. network interface up but no connection), this may take a bit.
2024-06-20 16:00:51.124 [main] INFO  org.matsim.core.utils.io.MatsimXmlParser - Trying to load http://www.matsim.org/files/dtd/matsimCommon.xsd. In some cases (e.g. network interface up but no connection), this may take a bit.
2024-06-20 16:00:51.164 [main] INFO  org.matsim.core.utils.io.MatsimXmlParser - Trying to load http://www.matsim.org/files/dtd/vehicleDefinitionsEnumTypes.xsd. In some cases (e.g. network interface up but no connection), this may take a bit.
2024-06-20 16:00:51.225 [main] INFO  org.matsim.freight.carriers.CarrierVehicleTypeReader - Using central vehicle parser
2024-06-20 16:00:51.228 [main] INFO  org.matsim.vehicles.MatsimVehicleReader - Found following schemaLocation in vehicle definition file: http://www.matsim.org/files/dtd http://www.matsim.org/files/dtd/vehicleDefinitions_v2.0.xsd
2024-06-20 16:00:51.228 [main] INFO  org.matsim.vehicles.VehicleReaderV2 - Using org.matsim.vehicles.VehicleReaderV2
2024-06-20 16:00:51.245 [main] INFO  hagrid.demand.LogisticsDataProcessor - Logistics data processing completed.
2024-06-20 16:00:51.245 [main] INFO  hagrid.App - Logistics data processing completed.
2024-06-20 16:00:51.246 [main] INFO  hagrid.App - Initializing DemandProcessor...
2024-06-20 16:00:51.254 [main] INFO  hagrid.App - Starting demand data processing...
2024-06-20 16:00:51.257 [main] INFO  hagrid.demand.DemandProcessor - Reading freight demand data from file: T:/bienzeisler/USEfUL-XT/matsim-hanover/01_MATSimModelCreator/vm-hochrechnung_matsim-punkte_epsg25832_mit_plz_v4_b2b.shp
2024-06-20 16:00:51.261 [main] WARN  org.matsim.core.utils.gis.GeoFileReader - Unsafe method! store.dispose() is not called from within this method
2024-06-20 16:00:51.395 [main] ERROR hagrid.demand.DemandProcessor - Error reading freight demand data
java.lang.IndexOutOfBoundsException: Index 0 out of bounds for length 0
	at java.base/jdk.internal.util.Preconditions.outOfBounds(Preconditions.java:100) ~[?:?]
	at java.base/jdk.internal.util.Preconditions.outOfBoundsCheckIndex(Preconditions.java:106) ~[?:?]
	at java.base/jdk.internal.util.Preconditions.checkIndex(Preconditions.java:302) ~[?:?]
	at java.base/java.util.Objects.checkIndex(Objects.java:385) ~[?:?]
	at java.base/java.util.ArrayList.get(ArrayList.java:427) ~[?:?]
	at org.geotools.data.shapefile.ShapefileFeatureSource.buildFeatureType(ShapefileFeatureSource.java:477) ~[gt-shapefile-31.1.jar:?]
	at org.geotools.data.store.ContentFeatureSource.getAbsoluteSchema(ContentFeatureSource.java:339) ~[gt-main-31.1.jar:?]
	at org.geotools.data.store.ContentFeatureSource.getSchema(ContentFeatureSource.java:308) ~[gt-main-31.1.jar:?]
	at org.geotools.data.store.ContentFeatureSource.resolvePropertyNames(ContentFeatureSource.java:1146) ~[gt-main-31.1.jar:?]
	at org.geotools.data.store.ContentFeatureSource.getBounds(ContentFeatureSource.java:376) ~[gt-main-31.1.jar:?]
	at org.geotools.data.store.ContentFeatureSource.getBounds(ContentFeatureSource.java:364) ~[gt-main-31.1.jar:?]
	at org.matsim.core.utils.gis.GeoFileReader.init(GeoFileReader.java:254) ~[matsim-2025.0-2024w21.jar:?]
	at org.matsim.core.utils.gis.GeoFileReader.readFileAndInitialize(GeoFileReader.java:165) ~[matsim-2025.0-2024w21.jar:?]
	at org.matsim.core.utils.gis.GeoFileReader.readFileAndInitialize(GeoFileReader.java:156) ~[matsim-2025.0-2024w21.jar:?]
	at hagrid.demand.DemandProcessor.readFreightDemandData(DemandProcessor.java:81) ~[classes/:?]
	at hagrid.demand.DemandProcessor.run(DemandProcessor.java:66) [classes/:?]
	at hagrid.App.runDemandProcessing(App.java:80) [classes/:?]
	at hagrid.App.main(App.java:27) [classes/:?]
2024-06-20 16:00:51.411 [main] INFO  hagrid.App - Demand data processing completed.
2024-06-20 16:00:51.411 [main] INFO  hagrid.App - Initializing DeliveryGenerator...
2024-06-20 16:00:51.412 [main] INFO  hagrid.App - Starting delivery generation based on sorted Demand...
2024-06-20 16:00:51.413 [main] INFO  hagrid.demand.DeliveryGenerator - Generating parcels from sorted carrier demand...
2024-06-20 16:00:51.414 [main] ERROR hagrid.demand.DeliveryGenerator - Error generating parcels
java.lang.IllegalStateException: Carrier demand data is missing in the scenario.
	at hagrid.demand.DeliveryGenerator.lambda$0(DeliveryGenerator.java:54) ~[classes/:?]
	at java.base/java.util.Optional.orElseThrow(Optional.java:403) ~[?:?]
	at hagrid.demand.DeliveryGenerator.run(DeliveryGenerator.java:54) [classes/:?]
	at hagrid.App.runDeliveryGeneration(App.java:97) [classes/:?]
	at hagrid.App.main(App.java:28) [classes/:?]
2024-06-20 16:00:51.415 [main] INFO  hagrid.App - Delivery and parcel generation completed.
2024-06-20 16:00:51.416 [main] INFO  hagrid.App - Initializing CarrierGenerator...
2024-06-20 16:00:51.416 [main] INFO  hagrid.App - Starting carrier generation based on sorted demand...
2024-06-20 16:00:51.417 [main] INFO  hagrid.demand.CarrierGenerator - Generating carriers from sorted deliveries and parcels...
2024-06-20 16:00:51.417 [main] INFO  hagrid.demand.CarrierGenerator - Getting scenario elements...
2024-06-20 16:00:51.419 [main] ERROR hagrid.demand.CarrierGenerator - Error generating carriers
java.lang.IllegalStateException: deliveries data is missing in the scenario.
	at hagrid.utils.general.HAGRIDUtils.getScenarioElementAs(HAGRIDUtils.java:33) ~[classes/:?]
	at hagrid.demand.CarrierGenerator.run(CarrierGenerator.java:68) [classes/:?]
	at hagrid.App.runCarrierGeneration(App.java:114) [classes/:?]
	at hagrid.App.main(App.java:29) [classes/:?]
2024-06-20 16:00:51.420 [main] INFO  hagrid.App - Carrier generation completed.
2024-06-20 16:00:51.420 [main] INFO  hagrid.App - Initializing SupplyCarrierGenerator...
2024-06-20 16:00:51.424 [main] INFO  hagrid.App - Starting supply carrier generation based on generated carriers...
2024-06-20 16:00:51.425 [main] INFO  hagrid.demand.SupplyCarrierGenerator - Generating supply carriers from existing carriers and services...
2024-06-20 16:00:51.426 [main] ERROR hagrid.demand.SupplyCarrierGenerator - Error generating supply carriers
java.lang.IllegalStateException: carriers data is missing in the scenario.
	at hagrid.utils.general.HAGRIDUtils.getScenarioElementAs(HAGRIDUtils.java:33) ~[classes/:?]
	at hagrid.demand.SupplyCarrierGenerator.run(SupplyCarrierGenerator.java:37) [classes/:?]
	at hagrid.App.runSupplyGeneration(App.java:131) [classes/:?]
	at hagrid.App.main(App.java:30) [classes/:?]
2024-06-20 16:00:51.435 [main] INFO  hagrid.App - Supply carrier generation completed.
2024-06-20 16:00:51.436 [main] INFO  hagrid.App - Application finished.
2024-06-20 16:01:10.687 [main] INFO  hagrid.App - Starting application...
2024-06-20 16:01:10.876 [main] INFO  org.matsim.core.utils.io.IOUtils - Resolved phd/input/config.xml to phd\input\config.xml
2024-06-20 16:01:10.887 [main] INFO  org.matsim.core.config.Config - setting context to [file:/C:/Users/bienzeisler/Documents/GitHub/HAGRID/]
2024-06-20 16:01:11.016 [main] INFO  org.hibernate.validator.internal.util.Version - HV000001: Hibernate Validator 7.0.1.Final
2024-06-20 16:01:11.350 [main] INFO  org.matsim.core.utils.io.MatsimXmlParser - starting to parse xml from url file:/C:/Users/bienzeisler/Documents/GitHub/HAGRID/phd/input/config.xml ...
2024-06-20 16:01:11.418 [main] INFO  org.matsim.core.config.ConfigReader - using config_v2-reader
2024-06-20 16:01:11.418 [main] INFO  org.matsim.core.utils.io.MatsimXmlParser - Trying to load http://www.matsim.org/files/dtd/config_v2.dtd. In some cases (e.g. network interface up but no connection), this may take a bit.
2024-06-20 16:01:11.535 [main] INFO  org.matsim.core.config.groups.GlobalConfigGroup - setting number of threads to: 2
2024-06-20 16:01:11.579 [main] WARN  org.matsim.core.config.groups.ScoringConfigGroup - Setting pathSizeLogitBeta different from zero is experimental.  KN, Sep'08
2024-06-20 16:01:11.613 [main] INFO  org.matsim.core.config.groups.ScoringConfigGroup - scoring parameters for subpopulation null were just replaced.
2024-06-20 16:01:11.631 [main] WARN  org.matsim.core.config.groups.RoutingConfigGroup - The first mode routing (= teleported mode) params that are explicitly defined clear the default mode routing (= teleported mode) params.  If you want to avoid this 
2024-06-20 16:01:11.632 [main] WARN  org.matsim.core.config.groups.RoutingConfigGroup -     warning, use clearTeleportedModeParams(true) in code, and "clearDefaultTeleportedModeParams"=true in xml config.
2024-06-20 16:01:11.660 [main] INFO  org.matsim.core.config.Config - setting context to [file:/C:/Users/bienzeisler/Documents/GitHub/HAGRID/phd/input/config.xml]
2024-06-20 16:01:11.706 [main] INFO  org.matsim.core.scenario.ScenarioLoaderImpl - no facilities file set in config, therefore not loading any facilities.  This is not a problem except if you are using facilities
2024-06-20 16:01:11.707 [main] INFO  org.matsim.core.scenario.ScenarioLoaderImpl - no facility-attributes file set in config, not loading any facility attributes
2024-06-20 16:01:11.707 [main] INFO  org.matsim.core.scenario.ScenarioLoaderImpl - no population file set in config, not able to load population
2024-06-20 16:01:11.708 [main] INFO  org.matsim.core.scenario.ScenarioLoaderImpl - no person-attributes file set in config, not loading any person attributes
2024-06-20 16:01:11.709 [main] INFO  org.matsim.core.scenario.ScenarioLoaderImpl - no households file set in config, not loading households
2024-06-20 16:01:11.709 [main] INFO  org.matsim.core.scenario.ScenarioLoaderImpl - no transit schedule file set in config, not loading any transit schedule
2024-06-20 16:01:11.710 [main] INFO  org.matsim.core.scenario.ScenarioLoaderImpl - no transit vehicles file set in config, not loading any transit vehicles
2024-06-20 16:01:11.885 [main] INFO  hagrid.App - Initializing NetworkProcessor...
2024-06-20 16:01:11.887 [main] INFO  hagrid.App - Starting network processing...
2024-06-20 16:01:11.887 [main] INFO  hagrid.demand.NetworkProcessor - Starting network processing...
2024-06-20 16:01:11.906 [main] INFO  hagrid.demand.NetworkProcessor - Reading the network file from path: phd/input/reduced_network.xml.gz
2024-06-20 16:01:11.908 [main] INFO  org.matsim.core.utils.io.MatsimXmlParser - starting to parse xml from file phd/input/reduced_network.xml.gz ...
2024-06-20 16:01:11.909 [main] INFO  org.matsim.core.utils.io.IOUtils - Resolved phd/input/reduced_network.xml.gz to phd\input\reduced_network.xml.gz
2024-06-20 16:01:12.123 [main] INFO  org.matsim.core.network.io.MatsimNetworkReader - using network_v2-reader.
2024-06-20 16:01:12.123 [main] INFO  org.matsim.core.utils.io.MatsimXmlParser - Trying to load http://www.matsim.org/files/dtd/network_v2.dtd. In some cases (e.g. network interface up but no connection), this may take a bit.
2024-06-20 16:01:12.172 [main] INFO  org.matsim.core.network.NetworkImpl -  node # 1
2024-06-20 16:01:12.173 [main] INFO  org.matsim.core.network.NetworkImpl -  node # 4
2024-06-20 16:01:12.175 [main] INFO  org.matsim.core.network.NetworkImpl -  node # 16
2024-06-20 16:01:12.182 [main] INFO  org.matsim.core.network.NetworkImpl -  node # 64
2024-06-20 16:01:12.196 [main] INFO  org.matsim.core.network.NetworkImpl -  node # 256
2024-06-20 16:01:12.229 [main] INFO  org.matsim.core.network.NetworkImpl -  node # 1024
2024-06-20 16:01:12.289 [main] INFO  org.matsim.core.network.NetworkImpl -  node # 4096
2024-06-20 16:01:12.458 [main] INFO  org.matsim.core.network.NetworkImpl -  node # 16384
2024-06-20 16:01:12.475 [main] INFO  org.matsim.core.network.NetworkImpl -  link # 1
2024-06-20 16:01:12.478 [main] INFO  org.matsim.core.network.NetworkImpl -  link # 4
2024-06-20 16:01:12.489 [main] INFO  org.matsim.core.network.NetworkImpl -  link # 16
2024-06-20 16:01:12.505 [main] INFO  org.matsim.core.network.NetworkImpl -  link # 64
2024-06-20 16:01:12.550 [main] INFO  org.matsim.core.network.NetworkImpl -  link # 256
2024-06-20 16:01:12.621 [main] INFO  org.matsim.core.network.NetworkImpl -  link # 1024
2024-06-20 16:01:12.630 [main] WARN  org.matsim.api.core.v01.network.Link - length=0.0 of link id 1185132 may cause problems
2024-06-20 16:01:12.630 [main] WARN  org.matsim.api.core.v01.network.Link -  Future occurences of this logging statement are suppressed.
2024-06-20 16:01:12.793 [main] INFO  org.matsim.core.network.NetworkImpl -  link # 4096
2024-06-20 16:01:13.212 [main] INFO  org.matsim.core.network.NetworkImpl -  link # 16384
2024-06-20 16:01:13.296 [main] INFO  hagrid.demand.NetworkProcessor - Adjusting link lengths and free speeds...
2024-06-20 16:01:13.309 [main] INFO  hagrid.demand.NetworkProcessor - Link adjustments completed.
2024-06-20 16:01:13.310 [main] INFO  hagrid.demand.NetworkProcessor - Filtering network to include only car mode links...
2024-06-20 16:01:13.310 [main] INFO  org.matsim.core.config.Config - setting context to [file:/C:/Users/bienzeisler/Documents/GitHub/HAGRID/]
2024-06-20 16:01:13.317 [main] INFO  org.matsim.core.network.NetworkImpl -  node # 1
2024-06-20 16:01:13.317 [main] INFO  org.matsim.core.network.NetworkImpl -  node # 4
2024-06-20 16:01:13.318 [main] INFO  org.matsim.core.network.NetworkImpl -  node # 16
2024-06-20 16:01:13.318 [main] INFO  org.matsim.core.network.NetworkImpl -  node # 64
2024-06-20 16:01:13.319 [main] INFO  org.matsim.core.network.NetworkImpl -  node # 256
2024-06-20 16:01:13.320 [main] INFO  org.matsim.core.network.NetworkImpl -  node # 1024
2024-06-20 16:01:13.322 [main] INFO  org.matsim.core.network.NetworkImpl -  node # 4096
2024-06-20 16:01:13.330 [main] INFO  org.matsim.core.network.NetworkImpl -  node # 16384
2024-06-20 16:01:13.332 [main] INFO  org.matsim.core.network.NetworkImpl -  link # 1
2024-06-20 16:01:13.332 [main] INFO  org.matsim.core.network.NetworkImpl -  link # 4
2024-06-20 16:01:13.333 [main] INFO  org.matsim.core.network.NetworkImpl -  link # 16
2024-06-20 16:01:13.333 [main] INFO  org.matsim.core.network.NetworkImpl -  link # 64
2024-06-20 16:01:13.335 [main] INFO  org.matsim.core.network.NetworkImpl -  link # 256
2024-06-20 16:01:13.352 [main] INFO  org.matsim.core.network.NetworkImpl -  link # 1024
2024-06-20 16:01:13.371 [main] INFO  org.matsim.core.network.NetworkImpl -  link # 4096
2024-06-20 16:01:13.462 [main] INFO  org.matsim.core.network.NetworkImpl -  link # 16384
2024-06-20 16:01:13.497 [main] INFO  hagrid.demand.NetworkProcessor - Car mode network filtering completed.
2024-06-20 16:01:13.497 [main] INFO  hagrid.demand.NetworkProcessor - Creating parcel service network based on custom criteria...
2024-06-20 16:01:13.498 [main] INFO  org.matsim.core.config.Config - setting context to [file:/C:/Users/bienzeisler/Documents/GitHub/HAGRID/]
2024-06-20 16:01:13.510 [main] INFO  org.matsim.core.network.NetworkImpl -  node # 1
2024-06-20 16:01:13.510 [main] INFO  org.matsim.core.network.NetworkImpl -  node # 4
2024-06-20 16:01:13.516 [main] INFO  org.matsim.core.network.NetworkImpl -  node # 16
2024-06-20 16:01:13.517 [main] INFO  org.matsim.core.network.NetworkImpl -  node # 64
2024-06-20 16:01:13.517 [main] INFO  org.matsim.core.network.NetworkImpl -  node # 256
2024-06-20 16:01:13.521 [main] INFO  org.matsim.core.network.NetworkImpl -  node # 1024
2024-06-20 16:01:13.523 [main] INFO  org.matsim.core.network.NetworkImpl -  node # 4096
2024-06-20 16:01:13.525 [main] INFO  hagrid.demand.NetworkProcessor - Total number of links in the carFilteredNetwork: 19063
2024-06-20 16:01:13.529 [main] INFO  org.matsim.core.network.NetworkImpl -  link # 1
2024-06-20 16:01:13.530 [main] INFO  org.matsim.core.network.NetworkImpl -  link # 4
2024-06-20 16:01:13.531 [main] INFO  org.matsim.core.network.NetworkImpl -  link # 16
2024-06-20 16:01:13.531 [main] INFO  org.matsim.core.network.NetworkImpl -  link # 64
2024-06-20 16:01:13.533 [main] INFO  org.matsim.core.network.NetworkImpl -  link # 256
2024-06-20 16:01:13.538 [main] INFO  org.matsim.core.network.NetworkImpl -  link # 1024
2024-06-20 16:01:13.543 [main] INFO  org.matsim.core.network.NetworkImpl -  link # 4096
2024-06-20 16:01:13.555 [main] INFO  org.matsim.core.network.NetworkImpl -  link # 16384
2024-06-20 16:01:13.555 [main] INFO  hagrid.demand.NetworkProcessor - Parcel service network created successfully with 18730 links added.
2024-06-20 16:01:13.570 [main] INFO  hagrid.demand.NetworkProcessor - Difference in number of links between carFilteredNetwork and parcel service network: 333
2024-06-20 16:01:13.571 [main] INFO  hagrid.App - Network processing completed. Subnetworks created.
2024-06-20 16:01:13.573 [main] INFO  hagrid.App - Initializing LogisticsDataProcessor...
2024-06-20 16:01:13.575 [main] INFO  hagrid.App - Starting logistics data processing...
2024-06-20 16:01:13.576 [main] INFO  hagrid.demand.LogisticsDataProcessor - Reading logistics data...
2024-06-20 16:01:13.576 [main] INFO  hagrid.demand.LogisticsDataProcessor - Reading hub data from file: phd/input/hubs/KEP-hubs_v3.csv
2024-06-20 16:01:13.576 [main] INFO  hagrid.demand.LogisticsDataProcessor - Reading data from file: phd/input/hubs/KEP-hubs_v3.csv
2024-06-20 16:01:13.599 [main] INFO  org.matsim.core.network.NetworkImpl - building LinkQuadTree for nodes: xrange(286579.5670514173,953227.577157235); yrange(5242845.444958333,6018233.358636351)
2024-06-20 16:01:13.648 [main] INFO  org.matsim.core.network.NetworkImpl - Building LinkQuadTree took 0.061 seconds.
2024-06-20 16:01:13.654 [main] INFO  hagrid.demand.LogisticsDataProcessor - Read 25 entries from file: phd/input/hubs/KEP-hubs_v3.csv
2024-06-20 16:01:13.655 [main] INFO  hagrid.demand.LogisticsDataProcessor - Reading parcel locker data from file: phd/input/hubs/standorte_von_dhl.de.csv
2024-06-20 16:01:13.655 [main] INFO  hagrid.demand.LogisticsDataProcessor - Reading data from file: phd/input/hubs/standorte_von_dhl.de.csv
2024-06-20 16:01:15.860 [main] INFO  hagrid.demand.LogisticsDataProcessor - Read 47 entries from file: phd/input/hubs/standorte_von_dhl.de.csv
2024-06-20 16:01:15.860 [main] INFO  hagrid.demand.LogisticsDataProcessor - Reading shipping point data from folder: phd/input/hubs/standorte_von_paket.net/
2024-06-20 16:01:15.862 [main] INFO  hagrid.demand.LogisticsDataProcessor - Reading data from file: phd/input/hubs/standorte_von_paket.net/dhl_paketnet_list.csv
2024-06-20 16:01:15.978 [main] INFO  hagrid.demand.LogisticsDataProcessor - Read 301 entries from file: phd/input/hubs/standorte_von_paket.net/dhl_paketnet_list.csv
2024-06-20 16:01:15.978 [main] INFO  hagrid.demand.LogisticsDataProcessor - Reading data from file: phd/input/hubs/standorte_von_paket.net/dpd_paketnet_list.csv
2024-06-20 16:01:16.020 [main] INFO  hagrid.demand.LogisticsDataProcessor - Read 95 entries from file: phd/input/hubs/standorte_von_paket.net/dpd_paketnet_list.csv
2024-06-20 16:01:16.021 [main] INFO  hagrid.demand.LogisticsDataProcessor - Reading data from file: phd/input/hubs/standorte_von_paket.net/gls_paketnet_list.csv
2024-06-20 16:01:16.056 [main] INFO  hagrid.demand.LogisticsDataProcessor - Read 92 entries from file: phd/input/hubs/standorte_von_paket.net/gls_paketnet_list.csv
2024-06-20 16:01:16.057 [main] INFO  hagrid.demand.LogisticsDataProcessor - Reading data from file: phd/input/hubs/standorte_von_paket.net/hermes_paketnet_list.csv
2024-06-20 16:01:16.105 [main] INFO  hagrid.demand.LogisticsDataProcessor - Read 200 entries from file: phd/input/hubs/standorte_von_paket.net/hermes_paketnet_list.csv
2024-06-20 16:01:16.105 [main] INFO  hagrid.demand.LogisticsDataProcessor - Reading data from file: phd/input/hubs/standorte_von_paket.net/ups_paketnet_list.csv
2024-06-20 16:01:16.117 [main] INFO  hagrid.demand.LogisticsDataProcessor - Read 52 entries from file: phd/input/hubs/standorte_von_paket.net/ups_paketnet_list.csv
2024-06-20 16:01:16.117 [main] INFO  hagrid.demand.LogisticsDataProcessor - Loading carrier vehicle types...
2024-06-20 16:01:16.120 [main] INFO  org.matsim.freight.carriers.CarrierVehicleTypeReader - With early carrier vehicle type file formats, there will be an expected exception in the following.
2024-06-20 16:01:16.120 [main] INFO  org.matsim.core.utils.io.MatsimXmlParser - starting to parse xml from file phd/input/HAGRID_vehicleTypes.xml ...
2024-06-20 16:01:16.121 [main] INFO  org.matsim.core.utils.io.IOUtils - Resolved phd/input/HAGRID_vehicleTypes.xml to phd\input\HAGRID_vehicleTypes.xml
2024-06-20 16:01:16.221 [main] INFO  org.matsim.core.utils.io.MatsimXmlParser - Trying to load http://www.matsim.org/files/dtd/vehicleDefinitions_v2.0.xsd. In some cases (e.g. network interface up but no connection), this may take a bit.
2024-06-20 16:01:16.299 [main] INFO  org.matsim.core.utils.io.MatsimXmlParser - Trying to load http://www.matsim.org/files/dtd/matsimCommon.xsd. In some cases (e.g. network interface up but no connection), this may take a bit.
2024-06-20 16:01:16.329 [main] INFO  org.matsim.core.utils.io.MatsimXmlParser - Trying to load http://www.matsim.org/files/dtd/vehicleDefinitionsEnumTypes.xsd. In some cases (e.g. network interface up but no connection), this may take a bit.
2024-06-20 16:01:16.377 [main] INFO  org.matsim.freight.carriers.CarrierVehicleTypeReader - Using central vehicle parser
2024-06-20 16:01:16.382 [main] INFO  org.matsim.vehicles.MatsimVehicleReader - Found following schemaLocation in vehicle definition file: http://www.matsim.org/files/dtd http://www.matsim.org/files/dtd/vehicleDefinitions_v2.0.xsd
2024-06-20 16:01:16.382 [main] INFO  org.matsim.vehicles.VehicleReaderV2 - Using org.matsim.vehicles.VehicleReaderV2
2024-06-20 16:01:16.400 [main] INFO  hagrid.demand.LogisticsDataProcessor - Logistics data processing completed.
2024-06-20 16:01:16.404 [main] INFO  hagrid.App - Logistics data processing completed.
2024-06-20 16:01:16.413 [main] INFO  hagrid.App - Initializing DemandProcessor...
2024-06-20 16:01:16.415 [main] INFO  hagrid.App - Starting demand data processing...
2024-06-20 16:01:16.416 [main] INFO  hagrid.demand.DemandProcessor - Reading freight demand data from file: T:/bienzeisler/USEfUL-XT/matsim-hanover/01_MATSimModelCreator/vm-hochrechnung_matsim-punkte_epsg25832_mit_plz_v4_b2b.shp
2024-06-20 16:01:16.421 [main] WARN  org.matsim.core.utils.gis.GeoFileReader - Unsafe method! store.dispose() is not called from within this method
2024-06-20 16:01:17.346 [main] INFO  org.matsim.core.utils.gis.GeoFileReader - features to read #46565
2024-06-20 16:01:17.355 [main] INFO  org.matsim.core.utils.misc.Counter - features read #1
2024-06-20 16:01:17.355 [main] INFO  org.matsim.core.utils.misc.Counter - features read #2
2024-06-20 16:01:17.358 [main] INFO  org.matsim.core.utils.misc.Counter - features read #4
2024-06-20 16:01:17.360 [main] INFO  org.matsim.core.utils.misc.Counter - features read #8
2024-06-20 16:01:17.362 [main] INFO  org.matsim.core.utils.misc.Counter - features read #16
2024-06-20 16:01:17.367 [main] INFO  org.matsim.core.utils.misc.Counter - features read #32
2024-06-20 16:01:17.399 [main] INFO  org.matsim.core.utils.misc.Counter - features read #64
2024-06-20 16:01:17.406 [main] INFO  org.matsim.core.utils.misc.Counter - features read #128
2024-06-20 16:01:17.416 [main] INFO  org.matsim.core.utils.misc.Counter - features read #256
2024-06-20 16:01:17.455 [main] INFO  org.matsim.core.utils.misc.Counter - features read #512
2024-06-20 16:01:17.496 [main] INFO  org.matsim.core.utils.misc.Counter - features read #1024
2024-06-20 16:01:17.574 [main] INFO  org.matsim.core.utils.misc.Counter - features read #2048
2024-06-20 16:01:17.645 [main] INFO  org.matsim.core.utils.misc.Counter - features read #4096
2024-06-20 16:01:17.773 [main] INFO  org.matsim.core.utils.misc.Counter - features read #8192
2024-06-20 16:01:17.985 [main] INFO  org.matsim.core.utils.misc.Counter - features read #16384
2024-06-20 16:01:18.471 [main] INFO  org.matsim.core.utils.misc.Counter - features read #32768
2024-06-20 16:01:18.837 [main] INFO  org.matsim.core.utils.misc.Counter - features read #46565
2024-06-20 16:01:19.270 [main] INFO  hagrid.demand.DemandProcessor - Total Number of Deliveries: 105984
2024-06-20 16:01:19.270 [main] INFO  hagrid.demand.DemandProcessor - Total Number of Parcels: 196885
2024-06-20 16:01:19.324 [main] INFO  hagrid.demand.DemandProcessor - Demand Border: 600
2024-06-20 16:01:19.324 [main] INFO  hagrid.demand.DemandProcessor - Need for Split: dhl_31275: Number of Deliveries: 1557
2024-06-20 16:01:19.342 [main] INFO  hagrid.demand.DemandProcessor - Initializing KMeans clustering with 3 clusters...
2024-06-20 16:01:19.593 [main] INFO  hagrid.demand.DemandProcessor - Cluster 1: 519 features
2024-06-20 16:01:19.594 [main] INFO  hagrid.demand.DemandProcessor - Cluster 2: 519 features
2024-06-20 16:01:19.595 [main] INFO  hagrid.demand.DemandProcessor - Cluster 3: 519 features
2024-06-20 16:01:19.595 [main] INFO  hagrid.demand.DemandProcessor - Total number of clusters created: 3
2024-06-20 16:01:20.343 [main] INFO  hagrid.demand.DemandProcessor - Chart saved successfully at: phd/output/demand_clustering/ClusterResults_dhl_31275.png
2024-06-20 16:01:20.364 [main] INFO  hagrid.demand.DemandProcessor - Assigned Demand for new Carrier dhl_31275_0: 519
2024-06-20 16:01:20.366 [main] INFO  hagrid.demand.DemandProcessor - Assigned Demand for new Carrier dhl_31275_1: 519
2024-06-20 16:01:20.368 [main] INFO  hagrid.demand.DemandProcessor - Assigned Demand for new Carrier dhl_31275_2: 519
2024-06-20 16:01:20.369 [main] INFO  hagrid.demand.DemandProcessor - Need for Split: dhl_30880: Number of Deliveries: 950
2024-06-20 16:01:20.371 [main] INFO  hagrid.demand.DemandProcessor - Initializing KMeans clustering with 2 clusters...
2024-06-20 16:01:20.385 [main] INFO  hagrid.demand.DemandProcessor - Cluster 1: 475 features
2024-06-20 16:01:20.386 [main] INFO  hagrid.demand.DemandProcessor - Cluster 2: 475 features
2024-06-20 16:01:20.386 [main] INFO  hagrid.demand.DemandProcessor - Total number of clusters created: 2
2024-06-20 16:01:20.620 [main] INFO  hagrid.demand.DemandProcessor - Chart saved successfully at: phd/output/demand_clustering/ClusterResults_dhl_30880.png
2024-06-20 16:01:20.621 [main] INFO  hagrid.demand.DemandProcessor - Assigned Demand for new Carrier dhl_30880_0: 475
2024-06-20 16:01:20.622 [main] INFO  hagrid.demand.DemandProcessor - Assigned Demand for new Carrier dhl_30880_1: 475
2024-06-20 16:01:20.622 [main] INFO  hagrid.demand.DemandProcessor - Need for Split: dhl_31311: Number of Deliveries: 839
2024-06-20 16:01:20.623 [main] INFO  hagrid.demand.DemandProcessor - Initializing KMeans clustering with 2 clusters...
2024-06-20 16:01:20.637 [main] INFO  hagrid.demand.DemandProcessor - Cluster 1: 420 features
2024-06-20 16:01:20.637 [main] INFO  hagrid.demand.DemandProcessor - Cluster 2: 419 features
2024-06-20 16:01:20.639 [main] INFO  hagrid.demand.DemandProcessor - Total number of clusters created: 2
2024-06-20 16:01:20.822 [main] INFO  hagrid.demand.DemandProcessor - Chart saved successfully at: phd/output/demand_clustering/ClusterResults_dhl_31311.png
2024-06-20 16:01:20.822 [main] INFO  hagrid.demand.DemandProcessor - Assigned Demand for new Carrier dhl_31311_0: 420
2024-06-20 16:01:20.822 [main] INFO  hagrid.demand.DemandProcessor - Assigned Demand for new Carrier dhl_31311_1: 419
2024-06-20 16:01:20.822 [main] INFO  hagrid.demand.DemandProcessor - Need for Split: ups_31535: Number of Deliveries: 719
2024-06-20 16:01:20.822 [main] INFO  hagrid.demand.DemandProcessor - Initializing KMeans clustering with 2 clusters...
2024-06-20 16:01:20.822 [main] INFO  hagrid.demand.DemandProcessor - Cluster 1: 360 features
2024-06-20 16:01:20.822 [main] INFO  hagrid.demand.DemandProcessor - Cluster 2: 359 features
2024-06-20 16:01:20.822 [main] INFO  hagrid.demand.DemandProcessor - Total number of clusters created: 2
2024-06-20 16:01:20.987 [main] INFO  hagrid.demand.DemandProcessor - Chart saved successfully at: phd/output/demand_clustering/ClusterResults_ups_31535.png
2024-06-20 16:01:20.994 [main] INFO  hagrid.demand.DemandProcessor - Assigned Demand for new Carrier ups_31535_0: 360
2024-06-20 16:01:20.994 [main] INFO  hagrid.demand.DemandProcessor - Assigned Demand for new Carrier ups_31535_1: 359
2024-06-20 16:01:20.994 [main] INFO  hagrid.demand.DemandProcessor - Need for Split: ups_31515: Number of Deliveries: 668
2024-06-20 16:01:20.996 [main] INFO  hagrid.demand.DemandProcessor - Initializing KMeans clustering with 2 clusters...
2024-06-20 16:01:21.004 [main] INFO  hagrid.demand.DemandProcessor - Cluster 1: 334 features
2024-06-20 16:01:21.005 [main] INFO  hagrid.demand.DemandProcessor - Cluster 2: 334 features
2024-06-20 16:01:21.005 [main] INFO  hagrid.demand.DemandProcessor - Total number of clusters created: 2
2024-06-20 16:01:21.172 [main] INFO  hagrid.demand.DemandProcessor - Chart saved successfully at: phd/output/demand_clustering/ClusterResults_ups_31515.png
2024-06-20 16:01:21.182 [main] INFO  hagrid.demand.DemandProcessor - Assigned Demand for new Carrier ups_31515_0: 334
2024-06-20 16:01:21.182 [main] INFO  hagrid.demand.DemandProcessor - Assigned Demand for new Carrier ups_31515_1: 334
2024-06-20 16:01:21.182 [main] INFO  hagrid.demand.DemandProcessor - Need for Split: dhl_30419: Number of Deliveries: 838
2024-06-20 16:01:21.182 [main] INFO  hagrid.demand.DemandProcessor - Initializing KMeans clustering with 2 clusters...
2024-06-20 16:01:21.209 [main] INFO  hagrid.demand.DemandProcessor - Cluster 1: 419 features
2024-06-20 16:01:21.211 [main] INFO  hagrid.demand.DemandProcessor - Cluster 2: 419 features
2024-06-20 16:01:21.211 [main] INFO  hagrid.demand.DemandProcessor - Total number of clusters created: 2
2024-06-20 16:01:21.547 [main] INFO  hagrid.demand.DemandProcessor - Chart saved successfully at: phd/output/demand_clustering/ClusterResults_dhl_30419.png
2024-06-20 16:01:21.547 [main] INFO  hagrid.demand.DemandProcessor - Assigned Demand for new Carrier dhl_30419_0: 419
2024-06-20 16:01:21.549 [main] INFO  hagrid.demand.DemandProcessor - Assigned Demand for new Carrier dhl_30419_1: 419
2024-06-20 16:01:21.550 [main] INFO  hagrid.demand.DemandProcessor - Need for Split: dhl_30519: Number of Deliveries: 650
2024-06-20 16:01:21.550 [main] INFO  hagrid.demand.DemandProcessor - Initializing KMeans clustering with 2 clusters...
2024-06-20 16:01:21.579 [main] INFO  hagrid.demand.DemandProcessor - Cluster 1: 325 features
2024-06-20 16:01:21.580 [main] INFO  hagrid.demand.DemandProcessor - Cluster 2: 325 features
2024-06-20 16:01:21.581 [main] INFO  hagrid.demand.DemandProcessor - Total number of clusters created: 2
2024-06-20 16:01:21.788 [main] INFO  hagrid.demand.DemandProcessor - Chart saved successfully at: phd/output/demand_clustering/ClusterResults_dhl_30519.png
2024-06-20 16:01:21.788 [main] INFO  hagrid.demand.DemandProcessor - Assigned Demand for new Carrier dhl_30519_0: 325
2024-06-20 16:01:21.788 [main] INFO  hagrid.demand.DemandProcessor - Assigned Demand for new Carrier dhl_30519_1: 325
2024-06-20 16:01:21.800 [main] INFO  hagrid.demand.DemandProcessor - Need for Split: dhl_30938: Number of Deliveries: 861
2024-06-20 16:01:21.800 [main] INFO  hagrid.demand.DemandProcessor - Initializing KMeans clustering with 2 clusters...
2024-06-20 16:01:21.844 [main] INFO  hagrid.demand.DemandProcessor - Cluster 1: 431 features
2024-06-20 16:01:21.845 [main] INFO  hagrid.demand.DemandProcessor - Cluster 2: 430 features
2024-06-20 16:01:21.845 [main] INFO  hagrid.demand.DemandProcessor - Total number of clusters created: 2
2024-06-20 16:01:22.022 [main] INFO  hagrid.demand.DemandProcessor - Chart saved successfully at: phd/output/demand_clustering/ClusterResults_dhl_30938.png
2024-06-20 16:01:22.022 [main] INFO  hagrid.demand.DemandProcessor - Assigned Demand for new Carrier dhl_30938_0: 431
2024-06-20 16:01:22.022 [main] INFO  hagrid.demand.DemandProcessor - Assigned Demand for new Carrier dhl_30938_1: 430
2024-06-20 16:01:22.027 [main] INFO  hagrid.demand.DemandProcessor - Need for Split: dhl_30916: Number of Deliveries: 945
2024-06-20 16:01:22.027 [main] INFO  hagrid.demand.DemandProcessor - Initializing KMeans clustering with 2 clusters...
2024-06-20 16:01:22.048 [main] INFO  hagrid.demand.DemandProcessor - Cluster 1: 472 features
2024-06-20 16:01:22.052 [main] INFO  hagrid.demand.DemandProcessor - Cluster 2: 473 features
2024-06-20 16:01:22.053 [main] INFO  hagrid.demand.DemandProcessor - Total number of clusters created: 2
2024-06-20 16:01:22.271 [main] INFO  hagrid.demand.DemandProcessor - Chart saved successfully at: phd/output/demand_clustering/ClusterResults_dhl_30916.png
2024-06-20 16:01:22.271 [main] INFO  hagrid.demand.DemandProcessor - Assigned Demand for new Carrier dhl_30916_0: 472
2024-06-20 16:01:22.273 [main] INFO  hagrid.demand.DemandProcessor - Assigned Demand for new Carrier dhl_30916_1: 473
2024-06-20 16:01:22.273 [main] INFO  hagrid.demand.DemandProcessor - Need for Split: ups_31275: Number of Deliveries: 729
2024-06-20 16:01:22.275 [main] INFO  hagrid.demand.DemandProcessor - Initializing KMeans clustering with 2 clusters...
2024-06-20 16:01:22.292 [main] INFO  hagrid.demand.DemandProcessor - Cluster 1: 365 features
2024-06-20 16:01:22.292 [main] INFO  hagrid.demand.DemandProcessor - Cluster 2: 364 features
2024-06-20 16:01:22.292 [main] INFO  hagrid.demand.DemandProcessor - Total number of clusters created: 2
2024-06-20 16:01:22.461 [main] INFO  hagrid.demand.DemandProcessor - Chart saved successfully at: phd/output/demand_clustering/ClusterResults_ups_31275.png
2024-06-20 16:01:22.465 [main] INFO  hagrid.demand.DemandProcessor - Assigned Demand for new Carrier ups_31275_0: 365
2024-06-20 16:01:22.465 [main] INFO  hagrid.demand.DemandProcessor - Assigned Demand for new Carrier ups_31275_1: 364
2024-06-20 16:01:22.465 [main] INFO  hagrid.demand.DemandProcessor - Need for Split: dhl_31303: Number of Deliveries: 1073
2024-06-20 16:01:22.469 [main] INFO  hagrid.demand.DemandProcessor - Initializing KMeans clustering with 2 clusters...
2024-06-20 16:01:22.502 [main] INFO  hagrid.demand.DemandProcessor - Cluster 1: 537 features
2024-06-20 16:01:22.503 [main] INFO  hagrid.demand.DemandProcessor - Cluster 2: 536 features
2024-06-20 16:01:22.504 [main] INFO  hagrid.demand.DemandProcessor - Total number of clusters created: 2
2024-06-20 16:01:22.687 [main] INFO  hagrid.demand.DemandProcessor - Chart saved successfully at: phd/output/demand_clustering/ClusterResults_dhl_31303.png
2024-06-20 16:01:22.687 [main] INFO  hagrid.demand.DemandProcessor - Assigned Demand for new Carrier dhl_31303_0: 537
2024-06-20 16:01:22.693 [main] INFO  hagrid.demand.DemandProcessor - Assigned Demand for new Carrier dhl_31303_1: 536
2024-06-20 16:01:22.693 [main] INFO  hagrid.demand.DemandProcessor - Need for Split: dhl_30952: Number of Deliveries: 692
2024-06-20 16:01:22.704 [main] INFO  hagrid.demand.DemandProcessor - Initializing KMeans clustering with 2 clusters...
2024-06-20 16:01:22.725 [main] INFO  hagrid.demand.DemandProcessor - Cluster 1: 346 features
2024-06-20 16:01:22.727 [main] INFO  hagrid.demand.DemandProcessor - Cluster 2: 346 features
2024-06-20 16:01:22.728 [main] INFO  hagrid.demand.DemandProcessor - Total number of clusters created: 2
2024-06-20 16:01:22.872 [main] INFO  hagrid.demand.DemandProcessor - Chart saved successfully at: phd/output/demand_clustering/ClusterResults_dhl_30952.png
2024-06-20 16:01:22.872 [main] INFO  hagrid.demand.DemandProcessor - Assigned Demand for new Carrier dhl_30952_0: 346
2024-06-20 16:01:22.872 [main] INFO  hagrid.demand.DemandProcessor - Assigned Demand for new Carrier dhl_30952_1: 346
2024-06-20 16:01:22.872 [main] INFO  hagrid.demand.DemandProcessor - Need for Split: dpd_30855: Number of Deliveries: 645
2024-06-20 16:01:22.872 [main] INFO  hagrid.demand.DemandProcessor - Initializing KMeans clustering with 2 clusters...
2024-06-20 16:01:22.878 [main] INFO  hagrid.demand.DemandProcessor - Cluster 1: 323 features
2024-06-20 16:01:22.878 [main] INFO  hagrid.demand.DemandProcessor - Cluster 2: 322 features
2024-06-20 16:01:22.878 [main] INFO  hagrid.demand.DemandProcessor - Total number of clusters created: 2
2024-06-20 16:01:23.010 [main] INFO  hagrid.demand.DemandProcessor - Chart saved successfully at: phd/output/demand_clustering/ClusterResults_dpd_30855.png
2024-06-20 16:01:23.021 [main] INFO  hagrid.demand.DemandProcessor - Assigned Demand for new Carrier dpd_30855_0: 323
2024-06-20 16:01:23.021 [main] INFO  hagrid.demand.DemandProcessor - Assigned Demand for new Carrier dpd_30855_1: 322
2024-06-20 16:01:23.022 [main] INFO  hagrid.demand.DemandProcessor - Need for Split: dhl_30855: Number of Deliveries: 1052
2024-06-20 16:01:23.022 [main] INFO  hagrid.demand.DemandProcessor - Initializing KMeans clustering with 2 clusters...
2024-06-20 16:01:23.034 [main] INFO  hagrid.demand.DemandProcessor - Cluster 1: 526 features
2024-06-20 16:01:23.034 [main] INFO  hagrid.demand.DemandProcessor - Cluster 2: 526 features
2024-06-20 16:01:23.034 [main] INFO  hagrid.demand.DemandProcessor - Total number of clusters created: 2
2024-06-20 16:01:23.204 [main] INFO  hagrid.demand.DemandProcessor - Chart saved successfully at: phd/output/demand_clustering/ClusterResults_dhl_30855.png
2024-06-20 16:01:23.204 [main] INFO  hagrid.demand.DemandProcessor - Assigned Demand for new Carrier dhl_30855_0: 526
2024-06-20 16:01:23.213 [main] INFO  hagrid.demand.DemandProcessor - Assigned Demand for new Carrier dhl_30855_1: 526
2024-06-20 16:01:23.214 [main] INFO  hagrid.demand.DemandProcessor - Need for Split: dhl_30559: Number of Deliveries: 682
2024-06-20 16:01:23.215 [main] INFO  hagrid.demand.DemandProcessor - Initializing KMeans clustering with 2 clusters...
2024-06-20 16:01:23.229 [main] INFO  hagrid.demand.DemandProcessor - Cluster 1: 341 features
2024-06-20 16:01:23.230 [main] INFO  hagrid.demand.DemandProcessor - Cluster 2: 341 features
2024-06-20 16:01:23.232 [main] INFO  hagrid.demand.DemandProcessor - Total number of clusters created: 2
2024-06-20 16:01:23.384 [main] INFO  hagrid.demand.DemandProcessor - Chart saved successfully at: phd/output/demand_clustering/ClusterResults_dhl_30559.png
2024-06-20 16:01:23.386 [main] INFO  hagrid.demand.DemandProcessor - Assigned Demand for new Carrier dhl_30559_0: 341
2024-06-20 16:01:23.387 [main] INFO  hagrid.demand.DemandProcessor - Assigned Demand for new Carrier dhl_30559_1: 341
2024-06-20 16:01:23.387 [main] INFO  hagrid.demand.DemandProcessor - Need for Split: dpd_31535: Number of Deliveries: 641
2024-06-20 16:01:23.389 [main] INFO  hagrid.demand.DemandProcessor - Initializing KMeans clustering with 2 clusters...
2024-06-20 16:01:23.391 [main] INFO  hagrid.demand.DemandProcessor - Cluster 1: 320 features
2024-06-20 16:01:23.391 [main] INFO  hagrid.demand.DemandProcessor - Cluster 2: 321 features
2024-06-20 16:01:23.402 [main] INFO  hagrid.demand.DemandProcessor - Total number of clusters created: 2
2024-06-20 16:01:23.543 [main] INFO  hagrid.demand.DemandProcessor - Chart saved successfully at: phd/output/demand_clustering/ClusterResults_dpd_31535.png
2024-06-20 16:01:23.554 [main] INFO  hagrid.demand.DemandProcessor - Assigned Demand for new Carrier dpd_31535_0: 320
2024-06-20 16:01:23.555 [main] INFO  hagrid.demand.DemandProcessor - Assigned Demand for new Carrier dpd_31535_1: 321
2024-06-20 16:01:23.555 [main] INFO  hagrid.demand.DemandProcessor - Need for Split: dhl_30890: Number of Deliveries: 1138
2024-06-20 16:01:23.555 [main] INFO  hagrid.demand.DemandProcessor - Initializing KMeans clustering with 2 clusters...
2024-06-20 16:01:23.574 [main] INFO  hagrid.demand.DemandProcessor - Cluster 1: 569 features
2024-06-20 16:01:23.575 [main] INFO  hagrid.demand.DemandProcessor - Cluster 2: 569 features
2024-06-20 16:01:23.576 [main] INFO  hagrid.demand.DemandProcessor - Total number of clusters created: 2
2024-06-20 16:01:23.737 [main] INFO  hagrid.demand.DemandProcessor - Chart saved successfully at: phd/output/demand_clustering/ClusterResults_dhl_30890.png
2024-06-20 16:01:23.737 [main] INFO  hagrid.demand.DemandProcessor - Assigned Demand for new Carrier dhl_30890_0: 569
2024-06-20 16:01:23.748 [main] INFO  hagrid.demand.DemandProcessor - Assigned Demand for new Carrier dhl_30890_1: 569
2024-06-20 16:01:23.748 [main] INFO  hagrid.demand.DemandProcessor - Need for Split: ups_30855: Number of Deliveries: 717
2024-06-20 16:01:23.748 [main] INFO  hagrid.demand.DemandProcessor - Initializing KMeans clustering with 2 clusters...
2024-06-20 16:01:23.755 [main] INFO  hagrid.demand.DemandProcessor - Cluster 1: 358 features
2024-06-20 16:01:23.755 [main] INFO  hagrid.demand.DemandProcessor - Cluster 2: 359 features
2024-06-20 16:01:23.757 [main] INFO  hagrid.demand.DemandProcessor - Total number of clusters created: 2
2024-06-20 16:01:23.881 [main] INFO  hagrid.demand.DemandProcessor - Chart saved successfully at: phd/output/demand_clustering/ClusterResults_ups_30855.png
2024-06-20 16:01:23.882 [main] INFO  hagrid.demand.DemandProcessor - Assigned Demand for new Carrier ups_30855_0: 358
2024-06-20 16:01:23.883 [main] INFO  hagrid.demand.DemandProcessor - Assigned Demand for new Carrier ups_30855_1: 359
2024-06-20 16:01:23.884 [main] INFO  hagrid.demand.DemandProcessor - Need for Split: dhl_30826: Number of Deliveries: 648
2024-06-20 16:01:23.885 [main] INFO  hagrid.demand.DemandProcessor - Initializing KMeans clustering with 2 clusters...
2024-06-20 16:01:23.888 [main] INFO  hagrid.demand.DemandProcessor - Cluster 1: 324 features
2024-06-20 16:01:23.888 [main] INFO  hagrid.demand.DemandProcessor - Cluster 2: 324 features
2024-06-20 16:01:23.888 [main] INFO  hagrid.demand.DemandProcessor - Total number of clusters created: 2
2024-06-20 16:01:24.021 [main] INFO  hagrid.demand.DemandProcessor - Chart saved successfully at: phd/output/demand_clustering/ClusterResults_dhl_30826.png
2024-06-20 16:01:24.021 [main] INFO  hagrid.demand.DemandProcessor - Assigned Demand for new Carrier dhl_30826_0: 324
2024-06-20 16:01:24.021 [main] INFO  hagrid.demand.DemandProcessor - Assigned Demand for new Carrier dhl_30826_1: 324
2024-06-20 16:01:24.021 [main] INFO  hagrid.demand.DemandProcessor - Need for Split: dhl_30926: Number of Deliveries: 924
2024-06-20 16:01:24.021 [main] INFO  hagrid.demand.DemandProcessor - Initializing KMeans clustering with 2 clusters...
2024-06-20 16:01:24.021 [main] INFO  hagrid.demand.DemandProcessor - Cluster 1: 462 features
2024-06-20 16:01:24.021 [main] INFO  hagrid.demand.DemandProcessor - Cluster 2: 462 features
2024-06-20 16:01:24.021 [main] INFO  hagrid.demand.DemandProcessor - Total number of clusters created: 2
2024-06-20 16:01:24.189 [main] INFO  hagrid.demand.DemandProcessor - Chart saved successfully at: phd/output/demand_clustering/ClusterResults_dhl_30926.png
2024-06-20 16:01:24.189 [main] INFO  hagrid.demand.DemandProcessor - Assigned Demand for new Carrier dhl_30926_0: 462
2024-06-20 16:01:24.202 [main] INFO  hagrid.demand.DemandProcessor - Assigned Demand for new Carrier dhl_30926_1: 462
2024-06-20 16:01:24.204 [main] INFO  hagrid.demand.DemandProcessor - Need for Split: dhl_31832: Number of Deliveries: 1059
2024-06-20 16:01:24.204 [main] INFO  hagrid.demand.DemandProcessor - Initializing KMeans clustering with 2 clusters...
2024-06-20 16:01:24.205 [main] INFO  hagrid.demand.DemandProcessor - Cluster 1: 529 features
2024-06-20 16:01:24.205 [main] INFO  hagrid.demand.DemandProcessor - Cluster 2: 530 features
2024-06-20 16:01:24.205 [main] INFO  hagrid.demand.DemandProcessor - Total number of clusters created: 2
2024-06-20 16:01:24.357 [main] INFO  hagrid.demand.DemandProcessor - Chart saved successfully at: phd/output/demand_clustering/ClusterResults_dhl_31832.png
2024-06-20 16:01:24.357 [main] INFO  hagrid.demand.DemandProcessor - Assigned Demand for new Carrier dhl_31832_0: 529
2024-06-20 16:01:24.357 [main] INFO  hagrid.demand.DemandProcessor - Assigned Demand for new Carrier dhl_31832_1: 530
2024-06-20 16:01:24.362 [main] INFO  hagrid.demand.DemandProcessor - Need for Split: dhl_31535: Number of Deliveries: 1661
2024-06-20 16:01:24.363 [main] INFO  hagrid.demand.DemandProcessor - Initializing KMeans clustering with 3 clusters...
2024-06-20 16:01:24.474 [main] INFO  hagrid.demand.DemandProcessor - Cluster 1: 553 features
2024-06-20 16:01:24.475 [main] INFO  hagrid.demand.DemandProcessor - Cluster 2: 554 features
2024-06-20 16:01:24.476 [main] INFO  hagrid.demand.DemandProcessor - Cluster 3: 554 features
2024-06-20 16:01:24.476 [main] INFO  hagrid.demand.DemandProcessor - Total number of clusters created: 3
2024-06-20 16:01:24.637 [main] INFO  hagrid.demand.DemandProcessor - Chart saved successfully at: phd/output/demand_clustering/ClusterResults_dhl_31535.png
2024-06-20 16:01:24.637 [main] INFO  hagrid.demand.DemandProcessor - Assigned Demand for new Carrier dhl_31535_0: 553
2024-06-20 16:01:24.641 [main] INFO  hagrid.demand.DemandProcessor - Assigned Demand for new Carrier dhl_31535_1: 554
2024-06-20 16:01:24.641 [main] INFO  hagrid.demand.DemandProcessor - Assigned Demand for new Carrier dhl_31535_2: 554
2024-06-20 16:01:24.643 [main] INFO  hagrid.demand.DemandProcessor - Need for Split: dpd_31275: Number of Deliveries: 620
2024-06-20 16:01:24.643 [main] INFO  hagrid.demand.DemandProcessor - Initializing KMeans clustering with 2 clusters...
2024-06-20 16:01:24.646 [main] INFO  hagrid.demand.DemandProcessor - Cluster 1: 310 features
2024-06-20 16:01:24.646 [main] INFO  hagrid.demand.DemandProcessor - Cluster 2: 310 features
2024-06-20 16:01:24.646 [main] INFO  hagrid.demand.DemandProcessor - Total number of clusters created: 2
2024-06-20 16:01:24.772 [main] INFO  hagrid.demand.DemandProcessor - Chart saved successfully at: phd/output/demand_clustering/ClusterResults_dpd_31275.png
2024-06-20 16:01:24.772 [main] INFO  hagrid.demand.DemandProcessor - Assigned Demand for new Carrier dpd_31275_0: 310
2024-06-20 16:01:24.772 [main] INFO  hagrid.demand.DemandProcessor - Assigned Demand for new Carrier dpd_31275_1: 310
2024-06-20 16:01:24.787 [main] INFO  hagrid.demand.DemandProcessor - Need for Split: dhl_31515: Number of Deliveries: 1407
2024-06-20 16:01:24.788 [main] INFO  hagrid.demand.DemandProcessor - Initializing KMeans clustering with 3 clusters...
2024-06-20 16:01:24.819 [main] INFO  hagrid.demand.DemandProcessor - Cluster 1: 469 features
2024-06-20 16:01:24.821 [main] INFO  hagrid.demand.DemandProcessor - Cluster 2: 469 features
2024-06-20 16:01:24.822 [main] INFO  hagrid.demand.DemandProcessor - Cluster 3: 469 features
2024-06-20 16:01:24.822 [main] INFO  hagrid.demand.DemandProcessor - Total number of clusters created: 3
2024-06-20 16:01:24.987 [main] INFO  hagrid.demand.DemandProcessor - Chart saved successfully at: phd/output/demand_clustering/ClusterResults_dhl_31515.png
2024-06-20 16:01:24.987 [main] INFO  hagrid.demand.DemandProcessor - Assigned Demand for new Carrier dhl_31515_0: 469
2024-06-20 16:01:24.987 [main] INFO  hagrid.demand.DemandProcessor - Assigned Demand for new Carrier dhl_31515_1: 469
2024-06-20 16:01:24.987 [main] INFO  hagrid.demand.DemandProcessor - Assigned Demand for new Carrier dhl_31515_2: 469
2024-06-20 16:01:24.987 [main] INFO  hagrid.demand.DemandProcessor - Need for Split: dhl_30823: Number of Deliveries: 657
2024-06-20 16:01:24.987 [main] INFO  hagrid.demand.DemandProcessor - Initializing KMeans clustering with 2 clusters...
2024-06-20 16:01:25.007 [main] INFO  hagrid.demand.DemandProcessor - Cluster 1: 328 features
2024-06-20 16:01:25.008 [main] INFO  hagrid.demand.DemandProcessor - Cluster 2: 329 features
2024-06-20 16:01:25.008 [main] INFO  hagrid.demand.DemandProcessor - Total number of clusters created: 2
2024-06-20 16:01:25.134 [main] INFO  hagrid.demand.DemandProcessor - Chart saved successfully at: phd/output/demand_clustering/ClusterResults_dhl_30823.png
2024-06-20 16:01:25.135 [main] INFO  hagrid.demand.DemandProcessor - Assigned Demand for new Carrier dhl_30823_0: 328
2024-06-20 16:01:25.137 [main] INFO  hagrid.demand.DemandProcessor - Assigned Demand for new Carrier dhl_30823_1: 329
2024-06-20 16:01:25.137 [main] INFO  hagrid.demand.DemandProcessor - Need for Split: dhl_30966: Number of Deliveries: 648
2024-06-20 16:01:25.138 [main] INFO  hagrid.demand.DemandProcessor - Initializing KMeans clustering with 2 clusters...
2024-06-20 16:01:25.141 [main] INFO  hagrid.demand.DemandProcessor - Cluster 1: 324 features
2024-06-20 16:01:25.141 [main] INFO  hagrid.demand.DemandProcessor - Cluster 2: 324 features
2024-06-20 16:01:25.141 [main] INFO  hagrid.demand.DemandProcessor - Total number of clusters created: 2
2024-06-20 16:01:25.275 [main] INFO  hagrid.demand.DemandProcessor - Chart saved successfully at: phd/output/demand_clustering/ClusterResults_dhl_30966.png
2024-06-20 16:01:25.276 [main] INFO  hagrid.demand.DemandProcessor - Assigned Demand for new Carrier dhl_30966_0: 324
2024-06-20 16:01:25.277 [main] INFO  hagrid.demand.DemandProcessor - Assigned Demand for new Carrier dhl_30966_1: 324
2024-06-20 16:01:25.278 [main] INFO  hagrid.demand.DemandProcessor - Need for Split: dhl_30900: Number of Deliveries: 1308
2024-06-20 16:01:25.279 [main] INFO  hagrid.demand.DemandProcessor - Initializing KMeans clustering with 3 clusters...
2024-06-20 16:01:25.298 [main] INFO  hagrid.demand.DemandProcessor - Cluster 1: 436 features
2024-06-20 16:01:25.298 [main] INFO  hagrid.demand.DemandProcessor - Cluster 2: 436 features
2024-06-20 16:01:25.302 [main] INFO  hagrid.demand.DemandProcessor - Cluster 3: 436 features
2024-06-20 16:01:25.302 [main] INFO  hagrid.demand.DemandProcessor - Total number of clusters created: 3
2024-06-20 16:01:25.487 [main] INFO  hagrid.demand.DemandProcessor - Chart saved successfully at: phd/output/demand_clustering/ClusterResults_dhl_30900.png
2024-06-20 16:01:25.487 [main] INFO  hagrid.demand.DemandProcessor - Assigned Demand for new Carrier dhl_30900_0: 436
2024-06-20 16:01:25.487 [main] INFO  hagrid.demand.DemandProcessor - Assigned Demand for new Carrier dhl_30900_1: 436
2024-06-20 16:01:25.495 [main] INFO  hagrid.demand.DemandProcessor - Assigned Demand for new Carrier dhl_30900_2: 436
2024-06-20 16:01:25.495 [main] INFO  hagrid.demand.DemandProcessor - Need for Split: dhl_31319: Number of Deliveries: 945
2024-06-20 16:01:25.496 [main] INFO  hagrid.demand.DemandProcessor - Initializing KMeans clustering with 2 clusters...
2024-06-20 16:01:25.504 [main] INFO  hagrid.demand.DemandProcessor - Cluster 1: 473 features
2024-06-20 16:01:25.506 [main] INFO  hagrid.demand.DemandProcessor - Cluster 2: 472 features
2024-06-20 16:01:25.506 [main] INFO  hagrid.demand.DemandProcessor - Total number of clusters created: 2
2024-06-20 16:01:25.658 [main] INFO  hagrid.demand.DemandProcessor - Chart saved successfully at: phd/output/demand_clustering/ClusterResults_dhl_31319.png
2024-06-20 16:01:25.658 [main] INFO  hagrid.demand.DemandProcessor - Assigned Demand for new Carrier dhl_31319_0: 473
2024-06-20 16:01:25.662 [main] INFO  hagrid.demand.DemandProcessor - Assigned Demand for new Carrier dhl_31319_1: 472
2024-06-20 16:01:25.742 [main] INFO  hagrid.demand.DemandProcessor - Total Number of Deliveries: 105984
2024-06-20 16:01:25.742 [main] INFO  hagrid.demand.DemandProcessor - Total Number of Parcels: 196885
2024-06-20 16:01:25.742 [main] INFO  hagrid.demand.DemandProcessor - Validation completed successfully: Total number of deliveries and parcels match.
2024-06-20 16:01:25.742 [main] INFO  hagrid.demand.DemandProcessor - Freight demand data processing completed.
2024-06-20 16:01:25.742 [main] INFO  hagrid.App - Demand data processing completed.
2024-06-20 16:01:25.745 [main] INFO  hagrid.App - Initializing DeliveryGenerator...
2024-06-20 16:01:25.745 [main] INFO  hagrid.App - Starting delivery generation based on sorted Demand...
2024-06-20 16:01:25.745 [main] INFO  hagrid.demand.DeliveryGenerator - Generating parcels from sorted carrier demand...
2024-06-20 16:01:25.751 [main] INFO  hagrid.demand.DeliveryGenerator - Total Parcels from carrier demand: 105984
2024-06-20 16:01:26.346 [main] INFO  hagrid.utils.general.ParcelStatisticsLogger - === Overall Summary ===
  Total Deliveries      : 106.031
  Total B2B Deliveries  : 19.188
  Total Parcels         : 198.060
  Total B2B Parcels     : 47.252
  B2B Delivery Ratio    : 18,10%
  B2B Parcel Ratio      : 23,86%
  Average Weight        : 4,90
  Average B2B Weight    : 9,18
  Total Locker Deliveries: 47
  Total Locker Parcels: 1.175
  Locker Delivery Ratio : 0,04%
  Locker Parcel Ratio : 0,59%

2024-06-20 16:01:26.354 [main] INFO  hagrid.demand.DeliveryGenerator - Parcel generation completed.
2024-06-20 16:01:26.354 [main] INFO  hagrid.App - Delivery and parcel generation completed.
2024-06-20 16:01:26.354 [main] INFO  hagrid.App - Initializing CarrierGenerator...
2024-06-20 16:01:26.354 [main] INFO  hagrid.App - Starting carrier generation based on sorted demand...
2024-06-20 16:01:26.354 [main] INFO  hagrid.demand.CarrierGenerator - Generating carriers from sorted deliveries and parcels...
2024-06-20 16:01:26.354 [main] INFO  hagrid.demand.CarrierGenerator - Getting scenario elements...
2024-06-20 16:01:26.362 [main] INFO  hagrid.demand.CarrierGenerator - Scenario elements retrieved.
2024-06-20 16:01:26.396 [main] INFO  org.matsim.core.network.NetworkImpl - building LinkQuadTree for nodes: xrange(288335.4442501353,953227.577157235); yrange(5242845.444958333,6003702.4934690865)
2024-06-20 16:01:26.629 [main] INFO  org.matsim.core.network.NetworkImpl - Building LinkQuadTree took 0.242 seconds.
2024-06-20 16:01:29.538 [main] INFO  hagrid.demand.CarrierGenerator - Carriers generated: 389
2024-06-20 16:01:29.538 [main] INFO  hagrid.demand.CarrierGenerator - Validating carrier missed deliveries...
2024-06-20 16:01:29.538 [main] INFO  hagrid.demand.CarrierGenerator - Validation of carrier missed deliveries completed.
2024-06-20 16:01:29.550 [main] INFO  hagrid.demand.CarrierGenerator - Validating carrier services...
2024-06-20 16:01:29.622 [main] INFO  hagrid.demand.CarrierGenerator - Correction factor for Delivery Size Adjustment: 1
2024-06-20 16:01:29.826 [main] INFO  hagrid.demand.CarrierGenerator - Missed parcels for provider amazon: average rate 95,26%
2024-06-20 16:01:29.826 [main] INFO  hagrid.demand.CarrierGenerator - Expected rate for provider amazon: 95,00%
2024-06-20 16:01:29.827 [main] INFO  hagrid.demand.CarrierGenerator - Missed parcels for provider fedex: average rate 92,36%
2024-06-20 16:01:29.827 [main] INFO  hagrid.demand.CarrierGenerator - Expected rate for provider fedex: 92,00%
2024-06-20 16:01:29.829 [main] INFO  hagrid.demand.CarrierGenerator - Missed parcels for provider ups: average rate 91,94%
2024-06-20 16:01:29.829 [main] INFO  hagrid.demand.CarrierGenerator - Expected rate for provider ups: 92,00%
2024-06-20 16:01:29.830 [main] INFO  hagrid.demand.CarrierGenerator - Missed parcels for provider dpd: average rate 91,66%
2024-06-20 16:01:29.830 [main] INFO  hagrid.demand.CarrierGenerator - Expected rate for provider dpd: 92,00%
2024-06-20 16:01:29.830 [main] INFO  hagrid.demand.CarrierGenerator - Missed parcels for provider dhl: average rate 95,51%
2024-06-20 16:01:29.830 [main] INFO  hagrid.demand.CarrierGenerator - Expected rate for provider dhl: 96,00%
2024-06-20 16:01:29.830 [main] INFO  hagrid.demand.CarrierGenerator - Missed parcels for provider hermes: average rate 93,41%
2024-06-20 16:01:29.833 [main] INFO  hagrid.demand.CarrierGenerator - Expected rate for provider hermes: 93,00%
2024-06-20 16:01:29.833 [main] INFO  hagrid.demand.CarrierGenerator - Missed parcels for provider gls: average rate 93,28%
2024-06-20 16:01:29.834 [main] INFO  hagrid.demand.CarrierGenerator - Expected rate for provider gls: 93,00%
2024-06-20 16:01:30.154 [main] INFO  hagrid.demand.CarrierGenerator - === Delivery Statistics by Provider ===
Provider: amazon
  Total Services     : 12.592
  B2B Services       : 283
  Total Parcels      : 18.401
  B2B Parcels        : 532
  B2B Service Ratio  : 2,25%
  B2B Parcel Ratio   : 2,89%
  Total Weight       : 73605,98
  Total B2B Weight   : 4992,90
  Average Weight     : 4,00
  Average B2B Weight : 9,39

Provider: fedex
  Total Services     : 9.911
  B2B Services       : 2.115
  Total Parcels      : 13.225
  B2B Parcels        : 3.415
  B2B Service Ratio  : 21,34%
  B2B Parcel Ratio   : 25,82%
  Total Weight       : 69806,78
  Total B2B Weight   : 31642,36
  Average Weight     : 5,28
  Average B2B Weight : 9,27

Provider: ups
  Total Services     : 16.314
  B2B Services       : 3.286
  Total Parcels      : 26.491
  B2B Parcels        : 6.854
  B2B Service Ratio  : 20,14%
  B2B Parcel Ratio   : 25,87%
  Total Weight       : 140120,03
  Total B2B Weight   : 63945,61
  Average Weight     : 5,29
  Average B2B Weight : 9,33

Provider: dpd
  Total Services     : 14.390
  B2B Services       : 3.027
  Total Parcels      : 22.122
  B2B Parcels        : 5.919
  B2B Service Ratio  : 21,04%
  B2B Parcel Ratio   : 26,76%
  Total Weight       : 117955,46
  Total B2B Weight   : 55782,10
  Average Weight     : 5,33
  Average B2B Weight : 9,42

Provider: dhl
  Total Services     : 31.061
  B2B Services       : 5.879
  Total Parcels      : 87.537
  B2B Parcels        : 22.822
  B2B Service Ratio  : 18,93%
  B2B Parcel Ratio   : 26,07%
  Total Weight       : 460945,87
  Total B2B Weight   : 214028,09
  Average Weight     : 5,27
  Average B2B Weight : 9,38

Provider: hermes
  Total Services     : 9.570
  B2B Services       : 2.091
  Total Parcels      : 12.603
  B2B Parcels        : 3.160
  B2B Service Ratio  : 21,85%
  B2B Parcel Ratio   : 25,07%
  Total Weight       : 66020,34
  Total B2B Weight   : 30193,64
  Average Weight     : 5,24
  Average B2B Weight : 9,55

Provider: gls
  Total Services     : 12.194
  B2B Services       : 2.508
  Total Parcels      : 17.681
  B2B Parcels        : 4.550
  B2B Service Ratio  : 20,57%
  B2B Parcel Ratio   : 25,73%
  Total Weight       : 92181,81
  Total B2B Weight   : 42958,80
  Average Weight     : 5,21
  Average B2B Weight : 9,44

=== Total Statistics ===
Total Services     : 106.032
Total B2B Services : 19.189
Total Parcels      : 198.060
Total B2B Parcels  : 47.252
Total Weight       : 1020636,27
Total B2B Weight   : 443543,50
Average Weight     : 5,15
Average B2B Weight : 9,39

2024-06-20 16:01:30.169 [main] INFO  hagrid.demand.CarrierGenerator - Validation passed: All carrier services match the original deliveries summary.
2024-06-20 16:01:30.169 [main] INFO  hagrid.demand.CarrierGenerator - Total deliveries match: 106031.
2024-06-20 16:01:30.169 [main] INFO  hagrid.demand.CarrierGenerator - Total parcels match: 198060.
2024-06-20 16:01:30.171 [main] INFO  hagrid.demand.CarrierGenerator - Total B2B deliveries match: 19188.
2024-06-20 16:01:30.171 [main] INFO  hagrid.demand.CarrierGenerator - Total B2B parcels match: 47252.
2024-06-20 16:01:30.171 [main] INFO  hagrid.demand.CarrierGenerator - Validation of carrier completed.
2024-06-20 16:01:30.172 [main] INFO  hagrid.demand.CarrierGenerator - Starting validation of supply demand...
2024-06-20 16:01:30.183 [main] INFO  hagrid.demand.CarrierGenerator - Hub ID: dp/dhl_bad_mnder, Assigned Supply Demand: 0
2024-06-20 16:01:30.187 [main] INFO  hagrid.demand.CarrierGenerator - Hub ID: dhl_hannover_sd, Assigned Supply Demand: 12027
2024-06-20 16:01:30.188 [main] INFO  hagrid.demand.CarrierGenerator - Hub ID: dp/dhl_barsinghausen, Assigned Supply Demand: 1086
2024-06-20 16:01:30.188 [main] INFO  hagrid.demand.CarrierGenerator - Hub ID: dp/dhl_neustadt_am_rbenberge, Assigned Supply Demand: 3191
2024-06-20 16:01:30.188 [main] INFO  hagrid.demand.CarrierGenerator - Hub ID: dhl_pattensen, Assigned Supply Demand: 4634
2024-06-20 16:01:30.191 [main] INFO  hagrid.demand.CarrierGenerator - Hub ID: hermes_langenhagen, Assigned Supply Demand: 12603
2024-06-20 16:01:30.191 [main] INFO  hagrid.demand.CarrierGenerator - Hub ID: dp/dhl_wedemark, Assigned Supply Demand: 7677
2024-06-20 16:01:30.191 [main] INFO  hagrid.demand.CarrierGenerator - Hub ID: dhl_hannover_gterbahnhof, Assigned Supply Demand: 24791
2024-06-20 16:01:30.192 [main] INFO  hagrid.demand.CarrierGenerator - Hub ID: dp/dhl_lehrte, Assigned Supply Demand: 3157
2024-06-20 16:01:30.192 [main] INFO  hagrid.demand.CarrierGenerator - Hub ID: amazon_garbsen, Assigned Supply Demand: 18401
2024-06-20 16:01:30.193 [main] INFO  hagrid.demand.CarrierGenerator - Hub ID: fedex_hannover, Assigned Supply Demand: 13225
2024-06-20 16:01:30.193 [main] INFO  hagrid.demand.CarrierGenerator - Hub ID: dp/dhl_wennigsen, Assigned Supply Demand: 3487
2024-06-20 16:01:30.193 [main] INFO  hagrid.demand.CarrierGenerator - Hub ID: dp/dhl_burgdorf, Assigned Supply Demand: 3986
2024-06-20 16:01:30.193 [main] INFO  hagrid.demand.CarrierGenerator - Hub ID: dpd_lehrte, Assigned Supply Demand: 22122
2024-06-20 16:01:30.193 [main] INFO  hagrid.demand.CarrierGenerator - Hub ID: gls_laatzen, Assigned Supply Demand: 17681
2024-06-20 16:01:30.196 [main] INFO  hagrid.demand.CarrierGenerator - Hub ID: dp/dhl_celle, Assigned Supply Demand: 0
2024-06-20 16:01:30.196 [main] INFO  hagrid.demand.CarrierGenerator - Hub ID: dp/dhl_springe, Assigned Supply Demand: 2086
2024-06-20 16:01:30.196 [main] INFO  hagrid.demand.CarrierGenerator - Hub ID: dp/dhl_garbsen, Assigned Supply Demand: 3474
2024-06-20 16:01:30.196 [main] INFO  hagrid.demand.CarrierGenerator - Hub ID: dp/dhl_seelze, Assigned Supply Demand: 4517
2024-06-20 16:01:30.198 [main] INFO  hagrid.demand.CarrierGenerator - Hub ID: dp/dhl_wunstorf, Assigned Supply Demand: 3213
2024-06-20 16:01:30.198 [main] INFO  hagrid.demand.CarrierGenerator - Hub ID: dp/dhl_uetze, Assigned Supply Demand: 1518
2024-06-20 16:01:30.199 [main] INFO  hagrid.demand.CarrierGenerator - Hub ID: dp/dhl_hildesheim, Assigned Supply Demand: 0
2024-06-20 16:01:30.199 [main] INFO  hagrid.demand.CarrierGenerator - Hub ID: dhl_hannover_anderten, Assigned Supply Demand: 7838
2024-06-20 16:01:30.199 [main] INFO  hagrid.demand.CarrierGenerator - Hub ID: ups_hannover, Assigned Supply Demand: 26491
2024-06-20 16:01:30.199 [main] INFO  hagrid.demand.CarrierGenerator - Hub ID: dp/dhl_sehnde, Assigned Supply Demand: 855
2024-06-20 16:01:30.199 [main] INFO  hagrid.demand.CarrierGenerator - Total Parcels: 198060, Total Assigned Supply Demand: 198060
2024-06-20 16:01:30.199 [main] INFO  hagrid.demand.CarrierGenerator - Validation successful: Total parcels match total assigned supply demand.
2024-06-20 16:01:30.199 [main] INFO  hagrid.utils.general.HAGRIDUtils - Starting to check and log carrier attributes
2024-06-20 16:01:30.737 [main] INFO  hagrid.demand.CarrierGenerator - Carrier generation completed.
2024-06-20 16:01:30.742 [main] INFO  org.matsim.freight.carriers.CarrierPlanXmlWriterV2_1 - write carrier plans
2024-06-20 16:01:30.750 [main] WARN  org.matsim.utils.objectattributes.ObjectAttributesConverter - No AttributeConverter found for class hagrid.utils.demand.Hub. Not all attribute values can be converted.
2024-06-20 16:01:32.359 [main] INFO  org.matsim.freight.carriers.CarrierPlanXmlWriterV2_1 - done
2024-06-20 16:01:32.361 [main] INFO  hagrid.App - Carrier generation completed.
2024-06-20 16:01:32.361 [main] INFO  hagrid.App - Initializing SupplyCarrierGenerator...
2024-06-20 16:01:32.362 [main] INFO  hagrid.App - Starting supply carrier generation based on generated carriers...
2024-06-20 16:01:32.362 [main] INFO  hagrid.demand.SupplyCarrierGenerator - Generating supply carriers from existing carriers and services...
2024-06-20 16:01:32.362 [main] INFO  hagrid.demand.SupplyCarrierGenerator - Supply carrier generation completed.
2024-06-20 16:01:32.362 [main] INFO  hagrid.App - Supply carrier generation completed.
2024-06-20 16:01:32.368 [main] INFO  hagrid.App - Application finished.
2024-06-20 16:22:32.566 [main] INFO  hagrid.App - Starting application...
2024-06-20 16:22:32.828 [main] INFO  org.matsim.core.utils.io.IOUtils - Resolved phd/input/config.xml to phd\input\config.xml
2024-06-20 16:22:32.834 [main] INFO  org.matsim.core.config.Config - setting context to [file:/C:/Users/bienzeisler/Documents/GitHub/HAGRID/]
2024-06-20 16:22:32.965 [main] INFO  org.hibernate.validator.internal.util.Version - HV000001: Hibernate Validator 7.0.1.Final
2024-06-20 16:22:33.457 [main] INFO  org.matsim.core.utils.io.MatsimXmlParser - starting to parse xml from url file:/C:/Users/bienzeisler/Documents/GitHub/HAGRID/phd/input/config.xml ...
2024-06-20 16:22:33.562 [main] INFO  org.matsim.core.config.ConfigReader - using config_v2-reader
2024-06-20 16:22:33.563 [main] INFO  org.matsim.core.utils.io.MatsimXmlParser - Trying to load http://www.matsim.org/files/dtd/config_v2.dtd. In some cases (e.g. network interface up but no connection), this may take a bit.
2024-06-20 16:22:33.645 [main] INFO  org.matsim.core.config.groups.GlobalConfigGroup - setting number of threads to: 2
2024-06-20 16:22:33.696 [main] WARN  org.matsim.core.config.groups.ScoringConfigGroup - Setting pathSizeLogitBeta different from zero is experimental.  KN, Sep'08
2024-06-20 16:22:33.712 [main] INFO  org.matsim.core.config.groups.ScoringConfigGroup - scoring parameters for subpopulation null were just replaced.
2024-06-20 16:22:33.716 [main] WARN  org.matsim.core.config.groups.RoutingConfigGroup - The first mode routing (= teleported mode) params that are explicitly defined clear the default mode routing (= teleported mode) params.  If you want to avoid this 
2024-06-20 16:22:33.716 [main] WARN  org.matsim.core.config.groups.RoutingConfigGroup -     warning, use clearTeleportedModeParams(true) in code, and "clearDefaultTeleportedModeParams"=true in xml config.
2024-06-20 16:22:33.735 [main] INFO  org.matsim.core.config.Config - setting context to [file:/C:/Users/bienzeisler/Documents/GitHub/HAGRID/phd/input/config.xml]
2024-06-20 16:22:33.764 [main] INFO  org.matsim.core.scenario.ScenarioLoaderImpl - no facilities file set in config, therefore not loading any facilities.  This is not a problem except if you are using facilities
2024-06-20 16:22:33.767 [main] INFO  org.matsim.core.scenario.ScenarioLoaderImpl - no facility-attributes file set in config, not loading any facility attributes
[...]
2024-06-20 18:49:42.194 [main] INFO  hagrid.utils.GeoUtils - Number of hubs removed: 4
2024-06-20 18:49:42.194 [main] INFO  hagrid.demand.LogisticsDataProcessor - Reading parcel locker data from file: phd/input/hubs/standorte_von_dhl.de.csv
2024-06-20 18:49:42.202 [main] INFO  hagrid.demand.LogisticsDataProcessor - Reading data from file: phd/input/hubs/standorte_von_dhl.de.csv
2024-06-20 18:49:44.406 [main] INFO  hagrid.demand.LogisticsDataProcessor - Read 44 entries from file: phd/input/hubs/standorte_von_dhl.de.csv
2024-06-20 18:49:44.406 [main] INFO  hagrid.demand.LogisticsDataProcessor - Reading shipping point data from folder: phd/input/hubs/standorte_von_paket.net/
2024-06-20 18:49:44.408 [main] INFO  hagrid.demand.LogisticsDataProcessor - Reading data from file: phd/input/hubs/standorte_von_paket.net/dhl_paketnet_list.csv
2024-06-20 18:49:44.623 [main] INFO  hagrid.demand.LogisticsDataProcessor - Read 301 entries from file: phd/input/hubs/standorte_von_paket.net/dhl_paketnet_list.csv
2024-06-20 18:49:44.623 [main] INFO  hagrid.demand.LogisticsDataProcessor - Reading data from file: phd/input/hubs/standorte_von_paket.net/dpd_paketnet_list.csv
2024-06-20 18:49:44.700 [main] INFO  hagrid.demand.LogisticsDataProcessor - Read 95 entries from file: phd/input/hubs/standorte_von_paket.net/dpd_paketnet_list.csv
2024-06-20 18:49:44.703 [main] INFO  hagrid.demand.LogisticsDataProcessor - Reading data from file: phd/input/hubs/standorte_von_paket.net/gls_paketnet_list.csv
2024-06-20 18:49:44.756 [main] INFO  hagrid.demand.LogisticsDataProcessor - Read 92 entries from file: phd/input/hubs/standorte_von_paket.net/gls_paketnet_list.csv
2024-06-20 18:49:44.758 [main] INFO  hagrid.demand.LogisticsDataProcessor - Reading data from file: phd/input/hubs/standorte_von_paket.net/hermes_paketnet_list.csv
2024-06-20 18:49:44.879 [main] INFO  hagrid.demand.LogisticsDataProcessor - Read 199 entries from file: phd/input/hubs/standorte_von_paket.net/hermes_paketnet_list.csv
2024-06-20 18:49:44.880 [main] INFO  hagrid.demand.LogisticsDataProcessor - Reading data from file: phd/input/hubs/standorte_von_paket.net/ups_paketnet_list.csv
2024-06-20 18:49:44.893 [main] INFO  hagrid.demand.LogisticsDataProcessor - Read 52 entries from file: phd/input/hubs/standorte_von_paket.net/ups_paketnet_list.csv
2024-06-20 18:49:44.893 [main] INFO  hagrid.utils.GeoUtils - Original number of hubs: 44
2024-06-20 18:49:44.893 [main] INFO  hagrid.utils.GeoUtils - Filtering hubs by regions: HANNOVER
2024-06-20 18:49:44.961 [main] INFO  hagrid.utils.GeoUtils - Filtered number of hubs: 22
2024-06-20 18:49:44.962 [main] INFO  hagrid.utils.GeoUtils - Number of hubs removed: 22
2024-06-20 18:49:44.963 [main] INFO  hagrid.utils.GeoUtils - Original number of hubs: 739
2024-06-20 18:49:44.964 [main] INFO  hagrid.utils.GeoUtils - Filtering hubs by regions: HANNOVER
2024-06-20 18:49:45.256 [main] INFO  hagrid.utils.GeoUtils - Filtered number of hubs: 363
2024-06-20 18:49:45.256 [main] INFO  hagrid.utils.GeoUtils - Number of hubs removed: 376
2024-06-20 18:49:45.258 [main] INFO  hagrid.demand.LogisticsDataProcessor - Loading carrier vehicle types...
2024-06-20 18:49:45.263 [main] INFO  org.matsim.freight.carriers.CarrierVehicleTypeReader - With early carrier vehicle type file formats, there will be an expected exception in the following.
2024-06-20 18:49:45.267 [main] INFO  org.matsim.core.utils.io.MatsimXmlParser - starting to parse xml from file phd/input/HAGRID_vehicleTypes.xml ...
2024-06-20 18:49:45.267 [main] INFO  org.matsim.core.utils.io.IOUtils - Resolved phd/input/HAGRID_vehicleTypes.xml to phd\input\HAGRID_vehicleTypes.xml
2024-06-20 18:49:45.440 [main] INFO  org.matsim.core.utils.io.MatsimXmlParser - Trying to load http://www.matsim.org/files/dtd/vehicleDefinitions_v2.0.xsd. In some cases (e.g. network interface up but no connection), this may take a bit.
2024-06-20 18:49:45.525 [main] INFO  org.matsim.core.utils.io.MatsimXmlParser - Trying to load http://www.matsim.org/files/dtd/matsimCommon.xsd. In some cases (e.g. network interface up but no connection), this may take a bit.
2024-06-20 18:49:45.563 [main] INFO  org.matsim.core.utils.io.MatsimXmlParser - Trying to load http://www.matsim.org/files/dtd/vehicleDefinitionsEnumTypes.xsd. In some cases (e.g. network interface up but no connection), this may take a bit.
2024-06-20 18:49:45.622 [main] INFO  org.matsim.freight.carriers.CarrierVehicleTypeReader - Using central vehicle parser
2024-06-20 18:49:45.626 [main] INFO  org.matsim.vehicles.MatsimVehicleReader - Found following schemaLocation in vehicle definition file: http://www.matsim.org/files/dtd http://www.matsim.org/files/dtd/vehicleDefinitions_v2.0.xsd
2024-06-20 18:49:45.629 [main] INFO  org.matsim.vehicles.VehicleReaderV2 - Using org.matsim.vehicles.VehicleReaderV2
2024-06-20 18:49:45.662 [main] INFO  hagrid.demand.LogisticsDataProcessor - Logistics data processing completed.
2024-06-20 18:49:45.662 [main] INFO  hagrid.App - Logistics data processing completed.
2024-06-20 18:49:45.665 [main] INFO  hagrid.App - Initializing DemandProcessor...
2024-06-20 18:49:45.666 [main] INFO  hagrid.App - Starting demand data processing...
2024-06-20 18:49:45.666 [main] INFO  hagrid.demand.DemandProcessor - Reading freight demand data from file: T:/bienzeisler/USEfUL-XT/matsim-hanover/01_MATSimModelCreator/vm-hochrechnung_matsim-punkte_epsg25832_mit_plz_v4_b2b.shp
2024-06-20 18:49:45.669 [main] WARN  org.matsim.core.utils.gis.GeoFileReader - Unsafe method! store.dispose() is not called from within this method
2024-06-20 18:49:45.816 [main] INFO  org.matsim.core.utils.gis.GeoFileReader - features to read #46565
2024-06-20 18:49:45.823 [main] INFO  org.matsim.core.utils.misc.Counter - features read #1
2024-06-20 18:49:45.823 [main] INFO  org.matsim.core.utils.misc.Counter - features read #2
2024-06-20 18:49:45.827 [main] INFO  org.matsim.core.utils.misc.Counter - features read #4
2024-06-20 18:49:45.830 [main] INFO  org.matsim.core.utils.misc.Counter - features read #8
2024-06-20 18:49:45.831 [main] INFO  org.matsim.core.utils.misc.Counter - features read #16
2024-06-20 18:49:45.841 [main] INFO  org.matsim.core.utils.misc.Counter - features read #32
2024-06-20 18:49:45.858 [main] INFO  org.matsim.core.utils.misc.Counter - features read #64
2024-06-20 18:49:45.875 [main] INFO  org.matsim.core.utils.misc.Counter - features read #128
2024-06-20 18:49:45.899 [main] INFO  org.matsim.core.utils.misc.Counter - features read #256
2024-06-20 18:49:45.933 [main] INFO  org.matsim.core.utils.misc.Counter - features read #512
2024-06-20 18:49:45.973 [main] INFO  org.matsim.core.utils.misc.Counter - features read #1024
2024-06-20 18:49:46.050 [main] INFO  org.matsim.core.utils.misc.Counter - features read #2048
2024-06-20 18:49:46.149 [main] INFO  org.matsim.core.utils.misc.Counter - features read #4096
2024-06-20 18:49:46.325 [main] INFO  org.matsim.core.utils.misc.Counter - features read #8192
2024-06-20 18:49:46.622 [main] INFO  org.matsim.core.utils.misc.Counter - features read #16384
2024-06-20 18:49:47.073 [main] INFO  org.matsim.core.utils.misc.Counter - features read #32768
2024-06-20 18:49:47.362 [main] INFO  org.matsim.core.utils.misc.Counter - features read #46565
2024-06-20 18:49:47.369 [main] INFO  hagrid.utils.GeoUtils - Original number of freight features: 46565
2024-06-20 18:49:47.369 [main] INFO  hagrid.utils.GeoUtils - Filtering freight features by regions: HANNOVER
2024-06-20 18:49:51.389 [main] INFO  hagrid.utils.GeoUtils - Filtered number of freight features: 12633
2024-06-20 18:49:51.389 [main] INFO  hagrid.utils.GeoUtils - Number of features removed: 33932
2024-06-20 18:49:51.649 [main] INFO  hagrid.demand.DemandProcessor - Total Number of Deliveries: 38349
2024-06-20 18:49:51.649 [main] INFO  hagrid.demand.DemandProcessor - Total Number of Parcels: 84635
2024-06-20 18:49:51.697 [main] INFO  hagrid.demand.DemandProcessor - Demand Border: 600
2024-06-20 18:49:51.697 [main] INFO  hagrid.demand.DemandProcessor - Need for Split: dhl_30419: Number of Deliveries: 838
2024-06-20 18:49:51.705 [main] INFO  hagrid.demand.DemandProcessor - Initializing KMeans clustering with 2 clusters...
2024-06-20 18:49:51.885 [main] INFO  hagrid.demand.DemandProcessor - Cluster 1: 419 features
2024-06-20 18:49:51.889 [main] INFO  hagrid.demand.DemandProcessor - Cluster 2: 419 features
2024-06-20 18:49:51.889 [main] INFO  hagrid.demand.DemandProcessor - Total number of clusters created: 2
2024-06-20 18:49:52.840 [main] INFO  hagrid.demand.DemandProcessor - Chart saved successfully at: phd/output/demand_clustering/ClusterResults_dhl_30419.png
2024-06-20 18:49:52.847 [main] INFO  hagrid.demand.DemandProcessor - Assigned Demand for new Carrier dhl_30419_0: 419
2024-06-20 18:49:52.847 [main] INFO  hagrid.demand.DemandProcessor - Assigned Demand for new Carrier dhl_30419_1: 419
2024-06-20 18:49:52.852 [main] INFO  hagrid.demand.DemandProcessor - Need for Split: dhl_30519: Number of Deliveries: 650
2024-06-20 18:49:52.855 [main] INFO  hagrid.demand.DemandProcessor - Initializing KMeans clustering with 2 clusters...
2024-06-20 18:49:52.859 [main] INFO  hagrid.demand.DemandProcessor - Cluster 1: 325 features
2024-06-20 18:49:52.859 [main] INFO  hagrid.demand.DemandProcessor - Cluster 2: 325 features
2024-06-20 18:49:52.859 [main] INFO  hagrid.demand.DemandProcessor - Total number of clusters created: 2
2024-06-20 18:49:53.325 [main] INFO  hagrid.demand.DemandProcessor - Chart saved successfully at: phd/output/demand_clustering/ClusterResults_dhl_30519.png
2024-06-20 18:49:53.325 [main] INFO  hagrid.demand.DemandProcessor - Assigned Demand for new Carrier dhl_30519_0: 325
2024-06-20 18:49:53.325 [main] INFO  hagrid.demand.DemandProcessor - Assigned Demand for new Carrier dhl_30519_1: 325
2024-06-20 18:49:53.325 [main] INFO  hagrid.demand.DemandProcessor - Need for Split: dhl_30559: Number of Deliveries: 682
2024-06-20 18:49:53.325 [main] INFO  hagrid.demand.DemandProcessor - Initializing KMeans clustering with 2 clusters...
2024-06-20 18:49:53.358 [main] INFO  hagrid.demand.DemandProcessor - Cluster 1: 341 features
2024-06-20 18:49:53.363 [main] INFO  hagrid.demand.DemandProcessor - Cluster 2: 341 features
2024-06-20 18:49:53.365 [main] INFO  hagrid.demand.DemandProcessor - Total number of clusters created: 2
2024-06-20 18:49:53.757 [main] INFO  hagrid.demand.DemandProcessor - Chart saved successfully at: phd/output/demand_clustering/ClusterResults_dhl_30559.png
2024-06-20 18:49:53.757 [main] INFO  hagrid.demand.DemandProcessor - Assigned Demand for new Carrier dhl_30559_0: 341
2024-06-20 18:49:53.760 [main] INFO  hagrid.demand.DemandProcessor - Assigned Demand for new Carrier dhl_30559_1: 341
2024-06-20 18:49:53.846 [main] INFO  hagrid.demand.DemandProcessor - Total Number of Deliveries: 38349
2024-06-20 18:49:53.847 [main] INFO  hagrid.demand.DemandProcessor - Total Number of Parcels: 84635
2024-06-20 18:49:53.848 [main] INFO  hagrid.demand.DemandProcessor - Validation completed successfully: Total number of deliveries and parcels match.
2024-06-20 18:49:53.849 [main] INFO  hagrid.demand.DemandProcessor - Freight demand data processing completed.
2024-06-20 18:49:53.850 [main] INFO  hagrid.App - Demand data processing completed.
2024-06-20 18:49:53.850 [main] INFO  hagrid.App - Initializing DeliveryGenerator...
2024-06-20 18:49:53.852 [main] INFO  hagrid.App - Starting delivery generation based on sorted Demand...
2024-06-20 18:49:53.853 [main] INFO  hagrid.demand.DeliveryGenerator - Generating parcels from sorted carrier demand...
2024-06-20 18:49:53.858 [main] INFO  hagrid.demand.DeliveryGenerator - Total Parcels from carrier demand: 38349
2024-06-20 18:49:54.431 [main] INFO  hagrid.utils.general.ParcelStatisticsLogger - === Overall Summary ===
  Total Deliveries      : 38.371
  Total B2B Deliveries  : 7.424
  Total Parcels         : 85.185
  Total B2B Parcels     : 22.721
  B2B Delivery Ratio    : 19,35%
  B2B Parcel Ratio      : 26,67%
  Average Weight        : 5,09
  Average B2B Weight    : 9,22
  Total Locker Deliveries: 22
  Total Locker Parcels: 550
  Locker Delivery Ratio : 0,06%
  Locker Parcel Ratio : 0,65%

2024-06-20 18:49:54.434 [main] INFO  hagrid.demand.DeliveryGenerator - Parcel generation completed.
2024-06-20 18:49:54.437 [main] INFO  hagrid.App - Delivery and parcel generation completed.
2024-06-20 18:49:54.438 [main] INFO  hagrid.App - Initializing CarrierGenerator...
2024-06-20 18:49:54.441 [main] INFO  hagrid.App - Starting carrier generation based on sorted demand...
2024-06-20 18:49:54.443 [main] INFO  hagrid.demand.CarrierGenerator - Generating carriers from sorted deliveries and parcels...
2024-06-20 18:49:54.444 [main] INFO  hagrid.demand.CarrierGenerator - Getting scenario elements...
2024-06-20 18:49:54.446 [main] INFO  hagrid.demand.CarrierGenerator - Scenario elements retrieved.
2024-06-20 18:49:54.497 [main] INFO  org.matsim.core.network.NetworkImpl - building LinkQuadTree for nodes: xrange(288335.4442501353,953227.577157235); yrange(5242845.444958333,6003702.4934690865)
2024-06-20 18:49:54.568 [main] INFO  org.matsim.core.network.NetworkImpl - Building LinkQuadTree took 0.085 seconds.
2024-06-20 18:49:56.772 [main] INFO  hagrid.demand.CarrierGenerator - Carrier with the most services: dhl_30539 with 499 services
2024-06-20 18:49:56.774 [main] INFO  hagrid.demand.CarrierGenerator - Carrier with the least services: amazon_30916 with 1 services
2024-06-20 18:49:56.776 [main] INFO  hagrid.demand.CarrierGenerator - Number of carriers removed with fewer than 5 services: 24
2024-06-20 18:49:56.776 [main] INFO  hagrid.demand.CarrierGenerator - Number of remaining carriers: 209
2024-06-20 18:49:56.777 [main] INFO  hagrid.demand.CarrierGenerator - Carriers generated: 209
2024-06-20 18:49:56.779 [main] INFO  hagrid.demand.CarrierGenerator - Validating carrier missed deliveries...
2024-06-20 18:49:56.779 [main] INFO  hagrid.demand.CarrierGenerator - Validation passed for all carriers and their missed parcel deliveries.
2024-06-20 18:49:56.780 [main] INFO  hagrid.demand.CarrierGenerator - Validation of carrier missed deliveries completed.
2024-06-20 18:49:56.781 [main] INFO  hagrid.demand.CarrierGenerator - Validating carrier services...
2024-06-20 18:49:56.828 [main] INFO  hagrid.demand.CarrierGenerator - Correction factor for Delivery Size Adjustment: 1
2024-06-20 18:49:56.956 [main] INFO  hagrid.demand.CarrierGenerator - Missed parcels for provider amazon: average rate 93,79%
2024-06-20 18:49:56.956 [main] INFO  hagrid.demand.CarrierGenerator - Expected rate for provider amazon: 95,00%
2024-06-20 18:49:56.956 [main] INFO  hagrid.demand.CarrierGenerator - Missed parcels for provider fedex: average rate 92,72%
2024-06-20 18:49:56.956 [main] INFO  hagrid.demand.CarrierGenerator - Expected rate for provider fedex: 92,00%
2024-06-20 18:49:56.956 [main] INFO  hagrid.demand.CarrierGenerator - Missed parcels for provider dhl: average rate 95,43%
2024-06-20 18:49:56.956 [main] INFO  hagrid.demand.CarrierGenerator - Expected rate for provider dhl: 96,00%
2024-06-20 18:49:56.966 [main] INFO  hagrid.demand.CarrierGenerator - Missed parcels for provider ups: average rate 91,85%
2024-06-20 18:49:56.966 [main] INFO  hagrid.demand.CarrierGenerator - Expected rate for provider ups: 92,00%
2024-06-20 18:49:56.966 [main] INFO  hagrid.demand.CarrierGenerator - Missed parcels for provider dpd: average rate 91,94%
2024-06-20 18:49:56.966 [main] INFO  hagrid.demand.CarrierGenerator - Expected rate for provider dpd: 92,00%
2024-06-20 18:49:56.969 [main] INFO  hagrid.demand.CarrierGenerator - Missed parcels for provider hermes: average rate 93,94%
2024-06-20 18:49:56.970 [main] INFO  hagrid.demand.CarrierGenerator - Expected rate for provider hermes: 93,00%
2024-06-20 18:49:56.970 [main] INFO  hagrid.demand.CarrierGenerator - Missed parcels for provider gls: average rate 93,31%
2024-06-20 18:49:56.972 [main] INFO  hagrid.demand.CarrierGenerator - Expected rate for provider gls: 93,00%
2024-06-20 18:49:57.176 [main] INFO  hagrid.demand.CarrierGenerator - === Delivery Statistics by Provider ===
Provider: amazon
  Total Services     : 4.792
  B2B Services       : 132
  Total Parcels      : 7.902
  B2B Parcels        : 281
  B2B Service Ratio  : 2,75%
  B2B Parcel Ratio   : 3,56%
  Total Weight       : 32662,61
  Total B2B Weight   : 2696,53
  Average Weight     : 4,13
  Average B2B Weight : 9,60

Provider: fedex
  Total Services     : 3.850
  B2B Services       : 911
  Total Parcels      : 5.657
  B2B Parcels        : 1.656
  B2B Service Ratio  : 23,66%
  B2B Parcel Ratio   : 29,27%
  Total Weight       : 31009,81
  Total B2B Weight   : 15599,21
  Average Weight     : 5,48
  Average B2B Weight : 9,42

Provider: dhl
  Total Services     : 9.895
  B2B Services       : 1.949
  Total Parcels      : 37.613
  B2B Parcels        : 10.871
  B2B Service Ratio  : 19,70%
  B2B Parcel Ratio   : 28,90%
  Total Weight       : 204114,18
  Total B2B Weight   : 101814,77
  Average Weight     : 5,43
  Average B2B Weight : 9,37

Provider: ups
  Total Services     : 6.002
  B2B Services       : 1.277
  Total Parcels      : 11.370
  B2B Parcels        : 3.271
  B2B Service Ratio  : 21,28%
  B2B Parcel Ratio   : 28,77%
  Total Weight       : 61243,14
  Total B2B Weight   : 30843,75
  Average Weight     : 5,39
  Average B2B Weight : 9,43

Provider: dpd
  Total Services     : 5.394
  B2B Services       : 1.211
  Total Parcels      : 9.486
  B2B Parcels        : 2.872
  B2B Service Ratio  : 22,45%
  B2B Parcel Ratio   : 30,28%
  Total Weight       : 51231,95
  Total B2B Weight   : 26884,92
  Average Weight     : 5,40
  Average B2B Weight : 9,36

Provider: hermes
  Total Services     : 3.751
  B2B Services       : 880
  Total Parcels      : 5.482
  B2B Parcels        : 1.530
  B2B Service Ratio  : 23,46%
  B2B Parcel Ratio   : 27,91%
  Total Weight       : 29266,70
  Total B2B Weight   : 14383,26
  Average Weight     : 5,34
  Average B2B Weight : 9,40

Provider: gls
  Total Services     : 4.640
  B2B Services       : 1.045
  Total Parcels      : 7.590
  B2B Parcels        : 2.198
  B2B Service Ratio  : 22,52%
  B2B Parcel Ratio   : 28,96%
  Total Weight       : 42133,71
  Total B2B Weight   : 20739,32
  Average Weight     : 5,55
  Average B2B Weight : 9,44

=== Total Statistics ===
Total Services     : 38.324
Total B2B Services : 7.405
Total Parcels      : 85.100
Total B2B Parcels  : 22.679
Total Weight       : 451662,10
Total B2B Weight   : 212961,76
Average Weight     : 5,31
Average B2B Weight : 9,39

2024-06-20 18:49:57.197 [main] ERROR hagrid.demand.CarrierGenerator - Error generating carriers
java.lang.IllegalStateException: Validation failed: Total deliveries do not match. Expected 38371, but got 38323.
Validation failed: Total parcels do not match. Expected 85185, but got 85100.
Validation failed: Total B2B deliveries do not match. Expected 7424, but got 7404.
Validation failed: Total B2B parcels do not match. Expected 22721, but got 22679.

	at hagrid.demand.CarrierGenerator.validateCarriers(CarrierGenerator.java:797) ~[classes/:?]
	at hagrid.demand.CarrierGenerator.run(CarrierGenerator.java:82) [classes/:?]
	at hagrid.App.runCarrierGeneration(App.java:114) [classes/:?]
	at hagrid.App.main(App.java:29) [classes/:?]
2024-06-20 18:49:57.215 [main] INFO  hagrid.App - Carrier generation completed.
2024-06-20 18:49:57.217 [main] INFO  hagrid.App - Initializing SupplyCarrierGenerator...
2024-06-20 18:49:57.221 [main] INFO  hagrid.App - Starting supply carrier generation based on generated carriers...
2024-06-20 18:49:57.222 [main] INFO  hagrid.demand.SupplyCarrierGenerator - Generating supply carriers from existing carriers and services...
2024-06-20 18:49:57.224 [main] INFO  hagrid.demand.SupplyCarrierGenerator - Supply carrier generation completed.
2024-06-20 18:49:57.224 [main] INFO  hagrid.App - Supply carrier generation completed.
2024-06-20 18:49:57.224 [main] INFO  hagrid.App - Application finished.
