2024-07-02 11:34:01.220 [main] INFO  hagrid.App - Starting application...
2024-07-02 11:34:01.394 [main] INFO  org.matsim.core.utils.io.IOUtils - Resolved phd/input/config.xml to phd\input\config.xml
2024-07-02 11:34:01.398 [main] INFO  org.matsim.core.config.Config - setting context to [file:/C:/Users/bienzeisler/Documents/GitHub/HAGRID/]
2024-07-02 11:34:01.503 [main] INFO  org.hibernate.validator.internal.util.Version - HV000001: Hibernate Validator 7.0.1.Final
2024-07-02 11:34:01.702 [main] INFO  org.matsim.core.utils.io.MatsimXmlParser - starting to parse xml from url file:/C:/Users/bienzeisler/Documents/GitHub/HAGRID/phd/input/config.xml ...
2024-07-02 11:34:01.745 [main] INFO  org.matsim.core.config.ConfigReader - using config_v2-reader
2024-07-02 11:34:01.746 [main] INFO  org.matsim.core.utils.io.MatsimXmlParser - Trying to load http://www.matsim.org/files/dtd/config_v2.dtd. In some cases (e.g. network interface up but no connection), this may take a bit.
2024-07-02 11:34:01.957 [main] INFO  org.matsim.core.config.groups.GlobalConfigGroup - setting number of threads to: 2
2024-07-02 11:34:01.976 [main] WARN  org.matsim.core.config.groups.ScoringConfigGroup - Setting pathSizeLogitBeta different from zero is experimental.  KN, Sep'08
2024-07-02 11:34:01.988 [main] INFO  org.matsim.core.config.groups.ScoringConfigGroup - scoring parameters for subpopulation null were just replaced.
2024-07-02 11:34:01.991 [main] WARN  org.matsim.core.config.groups.RoutingConfigGroup - The first mode routing (= teleported mode) params that are explicitly defined clear the default mode routing (= teleported mode) params.  If you want to avoid this 
2024-07-02 11:34:01.991 [main] WARN  org.matsim.core.config.groups.RoutingConfigGroup -     warning, use clearTeleportedModeParams(true) in code, and "clearDefaultTeleportedModeParams"=true in xml config.
2024-07-02 11:34:02.006 [main] INFO  org.matsim.core.config.Config - setting context to [file:/C:/Users/bienzeisler/Documents/GitHub/HAGRID/phd/input/config.xml]
2024-07-02 11:34:02.042 [main] INFO  org.matsim.core.scenario.ScenarioLoaderImpl - no facilities file set in config, therefore not loading any facilities.  This is not a problem except if you are using facilities
2024-07-02 11:34:02.043 [main] INFO  org.matsim.core.scenario.ScenarioLoaderImpl - no facility-attributes file set in config, not loading any facility attributes
2024-07-02 11:34:02.043 [main] INFO  org.matsim.core.scenario.ScenarioLoaderImpl - no population file set in config, not able to load population
2024-07-02 11:34:02.044 [main] INFO  org.matsim.core.scenario.ScenarioLoaderImpl - no person-attributes file set in config, not loading any person attributes
2024-07-02 11:34:02.044 [main] INFO  org.matsim.core.scenario.ScenarioLoaderImpl - no households file set in config, not loading households
2024-07-02 11:34:02.045 [main] INFO  org.matsim.core.scenario.ScenarioLoaderImpl - no transit schedule file set in config, not loading any transit schedule
2024-07-02 11:34:02.045 [main] INFO  org.matsim.core.scenario.ScenarioLoaderImpl - no transit vehicles file set in config, not loading any transit vehicles
2024-07-02 11:34:02.188 [main] INFO  hagrid.App - Initializing NetworkProcessor...
2024-07-02 11:34:02.197 [main] INFO  hagrid.App - Starting network processing...
2024-07-02 11:34:02.198 [main] INFO  hagrid.demand.NetworkProcessor - Starting network processing...
2024-07-02 11:34:02.209 [main] INFO  hagrid.demand.NetworkProcessor - Reading the network file from path: U:/USEfUL-XT/matsim-hanover/01_MATSimModelCreator/Sim-Input/car_cargobike_network_zones_MH_V3.xml.gz
2024-07-02 11:34:02.213 [main] INFO  org.matsim.core.utils.io.MatsimXmlParser - starting to parse xml from file U:/USEfUL-XT/matsim-hanover/01_MATSimModelCreator/Sim-Input/car_cargobike_network_zones_MH_V3.xml.gz ...
2024-07-02 11:34:02.218 [main] INFO  org.matsim.core.utils.io.IOUtils - Resolved U:/USEfUL-XT/matsim-hanover/01_MATSimModelCreator/Sim-Input/car_cargobike_network_zones_MH_V3.xml.gz to U:\USEfUL-XT\matsim-hanover\01_MATSimModelCreator\Sim-Input\car_cargobike_network_zones_MH_V3.xml.gz
2024-07-02 11:34:02.445 [main] INFO  org.matsim.core.network.io.MatsimNetworkReader - using network_v2-reader.
2024-07-02 11:34:02.446 [main] INFO  org.matsim.core.utils.io.MatsimXmlParser - Trying to load http://www.matsim.org/files/dtd/network_v2.dtd. In some cases (e.g. network interface up but no connection), this may take a bit.
2024-07-02 11:34:02.484 [main] INFO  org.matsim.core.network.NetworkImpl -  node # 1
2024-07-02 11:34:02.486 [main] INFO  org.matsim.core.network.NetworkImpl -  node # 4
2024-07-02 11:34:02.487 [main] INFO  org.matsim.core.network.NetworkImpl -  node # 16
2024-07-02 11:34:02.491 [main] INFO  org.matsim.core.network.NetworkImpl -  node # 64
2024-07-02 11:34:02.503 [main] INFO  org.matsim.core.network.NetworkImpl -  node # 256
2024-07-02 11:34:02.522 [main] INFO  org.matsim.core.network.NetworkImpl -  node # 1024
2024-07-02 11:34:02.592 [main] INFO  org.matsim.core.network.NetworkImpl -  node # 4096
2024-07-02 11:34:02.705 [main] INFO  org.matsim.core.network.NetworkImpl -  node # 16384
2024-07-02 11:34:02.946 [main] INFO  org.matsim.core.network.NetworkImpl -  node # 65536
2024-07-02 11:34:03.642 [main] INFO  org.matsim.core.network.NetworkImpl -  node # 262144
2024-07-02 17:34:42.520 [main] INFO  hagrid.App - Starting application...
2024-07-02 17:34:42.805 [main] INFO  org.matsim.core.utils.io.IOUtils - Resolved phd/input/config.xml to phd\input\config.xml
2024-07-02 17:34:42.811 [main] INFO  org.matsim.core.config.Config - setting context to [file:/C:/Users/bienzeisler/Documents/GitHub/HAGRID/]
2024-07-02 17:34:43.007 [main] INFO  org.hibernate.validator.internal.util.Version - HV000001: Hibernate Validator 7.0.1.Final
2024-07-02 17:34:43.473 [main] INFO  org.matsim.core.utils.io.MatsimXmlParser - starting to parse xml from url file:/C:/Users/bienzeisler/Documents/GitHub/HAGRID/phd/input/config.xml ...
2024-07-02 17:34:43.582 [main] INFO  org.matsim.core.config.ConfigReader - using config_v2-reader
2024-07-02 17:34:43.583 [main] INFO  org.matsim.core.utils.io.MatsimXmlParser - Trying to load http://www.matsim.org/files/dtd/config_v2.dtd. In some cases (e.g. network interface up but no connection), this may take a bit.
2024-07-02 17:34:43.822 [main] INFO  org.matsim.core.config.groups.GlobalConfigGroup - setting number of threads to: 2
2024-07-02 17:34:43.874 [main] WARN  org.matsim.core.config.groups.ScoringConfigGroup - Setting pathSizeLogitBeta different from zero is experimental.  KN, Sep'08
2024-07-02 17:34:43.905 [main] INFO  org.matsim.core.config.groups.ScoringConfigGroup - scoring parameters for subpopulation null were just replaced.
2024-07-02 17:34:43.916 [main] WARN  org.matsim.core.config.groups.RoutingConfigGroup - The first mode routing (= teleported mode) params that are explicitly defined clear the default mode routing (= teleported mode) params.  If you want to avoid this 
2024-07-02 17:34:43.917 [main] WARN  org.matsim.core.config.groups.RoutingConfigGroup -     warning, use clearTeleportedModeParams(true) in code, and "clearDefaultTeleportedModeParams"=true in xml config.
2024-07-02 17:34:43.950 [main] INFO  org.matsim.core.config.Config - setting context to [file:/C:/Users/bienzeisler/Documents/GitHub/HAGRID/phd/input/config.xml]
2024-07-02 17:34:44.008 [main] INFO  org.matsim.core.scenario.ScenarioLoaderImpl - no facilities file set in config, therefore not loading any facilities.  This is not a problem except if you are using facilities
2024-07-02 17:34:44.009 [main] INFO  org.matsim.core.scenario.ScenarioLoaderImpl - no facility-attributes file set in config, not loading any facility attributes
2024-07-02 17:34:44.012 [main] INFO  org.matsim.core.scenario.ScenarioLoaderImpl - no population file set in config, not able to load population
2024-07-02 17:34:44.013 [main] INFO  org.matsim.core.scenario.ScenarioLoaderImpl - no person-attributes file set in config, not loading any person attributes
2024-07-02 17:34:44.014 [main] INFO  org.matsim.core.scenario.ScenarioLoaderImpl - no households file set in config, not loading households
2024-07-02 17:34:44.016 [main] INFO  org.matsim.core.scenario.ScenarioLoaderImpl - no transit schedule file set in config, not loading any transit schedule
2024-07-02 17:34:44.016 [main] INFO  org.matsim.core.scenario.ScenarioLoaderImpl - no transit vehicles file set in config, not loading any transit vehicles
2024-07-02 17:34:44.301 [main] INFO  hagrid.App - Initializing NetworkProcessor...
2024-07-02 17:34:44.321 [main] INFO  hagrid.App - Starting network processing...
2024-07-02 17:34:44.322 [main] INFO  hagrid.demand.NetworkProcessor - Starting network processing...
2024-07-02 17:34:44.341 [main] INFO  hagrid.demand.NetworkProcessor - Reading the network file from path: U:/USEfUL-XT/matsim-hanover/01_MATSimModelCreator/Sim-Input/car_cargobike_network_zones_MH_V3.xml.gz
2024-07-02 17:34:44.348 [main] INFO  org.matsim.core.utils.io.MatsimXmlParser - starting to parse xml from file U:/USEfUL-XT/matsim-hanover/01_MATSimModelCreator/Sim-Input/car_cargobike_network_zones_MH_V3.xml.gz ...
2024-07-02 17:34:44.354 [main] INFO  org.matsim.core.utils.io.IOUtils - Resolved U:/USEfUL-XT/matsim-hanover/01_MATSimModelCreator/Sim-Input/car_cargobike_network_zones_MH_V3.xml.gz to U:\USEfUL-XT\matsim-hanover\01_MATSimModelCreator\Sim-Input\car_cargobike_network_zones_MH_V3.xml.gz
2024-07-02 17:34:44.678 [main] INFO  org.matsim.core.network.io.MatsimNetworkReader - using network_v2-reader.
2024-07-02 17:34:44.679 [main] INFO  org.matsim.core.utils.io.MatsimXmlParser - Trying to load http://www.matsim.org/files/dtd/network_v2.dtd. In some cases (e.g. network interface up but no connection), this may take a bit.
2024-07-02 17:34:44.721 [main] INFO  org.matsim.core.network.NetworkImpl -  node # 1
2024-07-02 17:34:44.723 [main] INFO  org.matsim.core.network.NetworkImpl -  node # 4
2024-07-02 17:34:44.725 [main] INFO  org.matsim.core.network.NetworkImpl -  node # 16
2024-07-02 17:34:44.731 [main] INFO  org.matsim.core.network.NetworkImpl -  node # 64
2024-07-02 17:34:44.752 [main] INFO  org.matsim.core.network.NetworkImpl -  node # 256
2024-07-02 17:34:44.790 [main] INFO  org.matsim.core.network.NetworkImpl -  node # 1024
2024-07-02 17:34:44.903 [main] INFO  org.matsim.core.network.NetworkImpl -  node # 4096
2024-07-02 17:34:45.457 [main] INFO  org.matsim.core.network.NetworkImpl -  node # 16384
2024-07-02 17:34:46.055 [main] INFO  org.matsim.core.network.NetworkImpl -  node # 65536
2024-07-02 17:34:46.998 [main] INFO  org.matsim.core.network.NetworkImpl -  node # 262144
2024-07-02 17:34:49.551 [main] INFO  org.matsim.core.network.NetworkImpl -  link # 1
2024-07-02 17:34:49.554 [main] INFO  org.matsim.core.network.NetworkImpl -  link # 4
2024-07-02 17:34:49.557 [main] INFO  org.matsim.core.network.NetworkImpl -  link # 16
2024-07-02 17:34:49.574 [main] INFO  org.matsim.core.network.NetworkImpl -  link # 64
2024-07-02 17:34:49.616 [main] INFO  org.matsim.core.network.NetworkImpl -  link # 256
2024-07-02 17:34:49.691 [main] INFO  org.matsim.core.network.NetworkImpl -  link # 1024
2024-07-02 17:34:49.757 [main] WARN  org.matsim.api.core.v01.network.Link - length=0.0 of link id 1003638 may cause problems
2024-07-02 17:34:49.758 [main] WARN  org.matsim.api.core.v01.network.Link -  Future occurences of this logging statement are suppressed.
2024-07-02 17:34:49.868 [main] INFO  org.matsim.core.network.NetworkImpl -  link # 4096
2024-07-02 17:34:50.239 [main] INFO  org.matsim.core.network.NetworkImpl -  link # 16384
2024-07-02 17:34:51.194 [main] INFO  org.matsim.core.network.NetworkImpl -  link # 65536
2024-07-02 17:34:54.348 [main] INFO  org.matsim.core.network.NetworkImpl -  link # 262144
2024-07-02 17:35:06.003 [main] INFO  org.matsim.core.network.NetworkImpl -  link # 1048576
2024-07-02 17:35:25.052 [main] INFO  hagrid.demand.NetworkProcessor - Adjusting link lengths and free speeds...
2024-07-02 17:35:25.215 [main] INFO  hagrid.demand.NetworkProcessor - Link adjustments completed.
2024-07-02 17:35:25.216 [main] INFO  hagrid.demand.NetworkProcessor - Filtering network to include only car mode links...
2024-07-02 17:35:25.217 [main] INFO  org.matsim.core.config.Config - setting context to [file:/C:/Users/bienzeisler/Documents/GitHub/HAGRID/]
2024-07-02 17:35:25.238 [main] INFO  org.matsim.core.network.NetworkImpl -  node # 1
2024-07-02 17:35:25.239 [main] INFO  org.matsim.core.network.NetworkImpl -  node # 4
2024-07-02 17:35:25.240 [main] INFO  org.matsim.core.network.NetworkImpl -  node # 16
2024-07-02 17:35:25.240 [main] INFO  org.matsim.core.network.NetworkImpl -  node # 64
2024-07-02 17:35:25.241 [main] INFO  org.matsim.core.network.NetworkImpl -  node # 256
2024-07-02 17:35:25.243 [main] INFO  org.matsim.core.network.NetworkImpl -  node # 1024
2024-07-02 17:35:25.246 [main] INFO  org.matsim.core.network.NetworkImpl -  node # 4096
2024-07-02 17:35:25.256 [main] INFO  org.matsim.core.network.NetworkImpl -  node # 16384
2024-07-02 17:35:25.279 [main] INFO  org.matsim.core.network.NetworkImpl -  node # 65536
2024-07-02 17:35:25.316 [main] INFO  org.matsim.core.network.NetworkImpl -  node # 262144
2024-07-02 17:35:25.396 [main] INFO  org.matsim.core.network.NetworkImpl -  link # 1
2024-07-02 17:35:25.397 [main] INFO  org.matsim.core.network.NetworkImpl -  link # 4
2024-07-02 17:35:25.398 [main] INFO  org.matsim.core.network.NetworkImpl -  link # 16
2024-07-02 17:35:25.400 [main] INFO  org.matsim.core.network.NetworkImpl -  link # 64
2024-07-02 17:35:25.403 [main] INFO  org.matsim.core.network.NetworkImpl -  link # 256
2024-07-02 17:35:25.412 [main] INFO  org.matsim.core.network.NetworkImpl -  link # 1024
2024-07-02 17:35:25.432 [main] INFO  org.matsim.core.network.NetworkImpl -  link # 4096
2024-07-02 17:35:25.487 [main] INFO  org.matsim.core.network.NetworkImpl -  link # 16384
2024-07-02 17:35:25.616 [main] INFO  org.matsim.core.network.NetworkImpl -  link # 65536
2024-07-02 17:35:25.955 [main] INFO  org.matsim.core.network.NetworkImpl -  link # 262144
2024-07-02 17:35:27.458 [main] INFO  org.matsim.core.network.NetworkImpl -  link # 1048576
2024-07-02 17:35:29.874 [main] INFO  hagrid.demand.NetworkProcessor - Car mode network filtering completed.
2024-07-02 17:35:29.876 [main] INFO  hagrid.demand.NetworkProcessor - Creating parcel service network based on custom criteria...
2024-07-02 17:35:29.876 [main] INFO  org.matsim.core.config.Config - setting context to [file:/C:/Users/bienzeisler/Documents/GitHub/HAGRID/]
2024-07-02 17:35:29.889 [main] INFO  org.matsim.core.network.NetworkImpl -  node # 1
2024-07-02 17:35:29.890 [main] INFO  org.matsim.core.network.NetworkImpl -  node # 4
2024-07-02 17:35:29.891 [main] INFO  org.matsim.core.network.NetworkImpl -  node # 16
2024-07-02 17:35:29.891 [main] INFO  org.matsim.core.network.NetworkImpl -  node # 64
2024-07-02 17:35:29.892 [main] INFO  org.matsim.core.network.NetworkImpl -  node # 256
2024-07-02 17:35:29.895 [main] INFO  org.matsim.core.network.NetworkImpl -  node # 1024
2024-07-02 17:35:29.897 [main] INFO  org.matsim.core.network.NetworkImpl -  node # 4096
2024-07-02 17:35:29.902 [main] INFO  org.matsim.core.network.NetworkImpl -  node # 16384
2024-07-02 17:35:29.910 [main] INFO  org.matsim.core.network.NetworkImpl -  node # 65536
2024-07-02 17:35:29.940 [main] INFO  org.matsim.core.network.NetworkImpl -  node # 262144
2024-07-02 17:35:30.028 [main] INFO  hagrid.demand.NetworkProcessor - Total number of links in the carFilteredNetwork: 2094861
2024-07-02 17:35:30.029 [main] INFO  org.matsim.core.network.NetworkImpl -  link # 1
2024-07-02 17:35:30.030 [main] INFO  org.matsim.core.network.NetworkImpl -  link # 4
2024-07-02 17:35:30.030 [main] INFO  org.matsim.core.network.NetworkImpl -  link # 16
2024-07-02 17:35:30.032 [main] INFO  org.matsim.core.network.NetworkImpl -  link # 64
2024-07-02 17:35:30.033 [main] INFO  org.matsim.core.network.NetworkImpl -  link # 256
2024-07-02 17:35:30.036 [main] INFO  org.matsim.core.network.NetworkImpl -  link # 1024
2024-07-02 17:35:30.043 [main] INFO  org.matsim.core.network.NetworkImpl -  link # 4096
2024-07-02 17:35:30.059 [main] INFO  org.matsim.core.network.NetworkImpl -  link # 16384
2024-07-02 17:35:30.110 [main] INFO  org.matsim.core.network.NetworkImpl -  link # 65536
2024-07-02 17:35:30.221 [main] INFO  org.matsim.core.network.NetworkImpl -  link # 262144
2024-07-02 17:35:30.697 [main] INFO  org.matsim.core.network.NetworkImpl -  link # 1048576
2024-07-02 17:35:31.395 [main] INFO  hagrid.demand.NetworkProcessor - Parcel service network created successfully with 1967655 links added.
2024-07-02 17:35:31.395 [main] INFO  hagrid.demand.NetworkProcessor - Difference in number of links between carFilteredNetwork and parcel service network: 127206
2024-07-02 17:35:31.396 [main] INFO  hagrid.App - Network processing completed. Subnetworks created.
2024-07-02 17:35:31.396 [main] INFO  hagrid.App - Initializing LogisticsDataProcessor...
2024-07-02 17:35:31.398 [main] INFO  hagrid.App - Starting logistics data processing...
2024-07-02 17:35:31.398 [main] INFO  hagrid.demand.LogisticsDataProcessor - Reading logistics data...
2024-07-02 17:35:31.399 [main] INFO  hagrid.demand.LogisticsDataProcessor - Reading geodata of Hanover Region from folder: phd/input/geodata/Region Hannover.shp
2024-07-02 17:35:31.401 [main] INFO  org.matsim.core.utils.gis.GeoFileReader - will try to read from C:\Users\bienzeisler\Documents\GitHub\HAGRID\phd\input\geodata\Region Hannover.shp
2024-07-02 17:35:33.304 [main] INFO  hagrid.demand.LogisticsDataProcessor - Reading hub data from file: phd/input/hubs/KEP-hubs_v3.csv
2024-07-02 17:35:33.305 [main] INFO  hagrid.demand.LogisticsDataProcessor - Reading data from file: phd/input/hubs/KEP-hubs_v3.csv
2024-07-02 17:35:33.455 [main] INFO  org.matsim.core.network.NetworkImpl - building LinkQuadTree for nodes: xrange(282281.45131461613,954092.9718280886); yrange(5239566.628775733,6025734.814523158)
2024-07-02 17:35:35.363 [main] INFO  org.matsim.core.network.NetworkImpl - Building LinkQuadTree took 2.044 seconds.
2024-07-02 17:35:35.433 [main] INFO  hagrid.demand.LogisticsDataProcessor - Read 25 entries from file: phd/input/hubs/KEP-hubs_v3.csv
2024-07-02 17:35:35.434 [main] INFO  hagrid.utils.GeoUtils - Original number of hubs: 25
2024-07-02 17:35:35.435 [main] INFO  hagrid.utils.GeoUtils - Filtering hubs by regions: BARSINGHAUSEN, BURGDORF, BURGWEDEL, GARBSEN, GEHRDEN, HANNOVER, HEMMINGEN, ISERNHAGEN, LAATZEN, LANGENHAGEN, LEHRTE, NEUSTADT, PATTENSEN, RONNENBERG, SEELZE, SEHNDE, SPRINGE, UETZE, WEDEMARK, WENNIGSEN, WUNSTORF
2024-07-02 17:35:35.518 [main] INFO  hagrid.utils.GeoUtils - Filtered number of hubs: 21
2024-07-02 17:35:35.519 [main] INFO  hagrid.utils.GeoUtils - Number of hubs removed: 4
2024-07-02 17:35:35.519 [main] INFO  hagrid.demand.LogisticsDataProcessor - Reading parcel locker data from file: phd/input/hubs/standorte_von_dhl.de.csv
2024-07-02 17:35:35.520 [main] INFO  hagrid.demand.LogisticsDataProcessor - Reading data from file: phd/input/hubs/standorte_von_dhl.de.csv
2024-07-02 17:35:38.304 [main] INFO  hagrid.demand.LogisticsDataProcessor - Read 44 entries from file: phd/input/hubs/standorte_von_dhl.de.csv
2024-07-02 17:35:38.306 [main] INFO  hagrid.demand.LogisticsDataProcessor - Reading shipping point data from folder: phd/input/hubs/standorte_von_paket.net/
2024-07-02 17:35:38.307 [main] INFO  hagrid.demand.LogisticsDataProcessor - Reading data from file: phd/input/hubs/standorte_von_paket.net/dhl_paketnet_list.csv
2024-07-02 17:35:39.034 [main] INFO  hagrid.demand.LogisticsDataProcessor - Read 301 entries from file: phd/input/hubs/standorte_von_paket.net/dhl_paketnet_list.csv
2024-07-02 17:35:39.038 [main] INFO  hagrid.demand.LogisticsDataProcessor - Reading data from file: phd/input/hubs/standorte_von_paket.net/dpd_paketnet_list.csv
2024-07-02 17:35:39.234 [main] INFO  hagrid.demand.LogisticsDataProcessor - Read 95 entries from file: phd/input/hubs/standorte_von_paket.net/dpd_paketnet_list.csv
2024-07-02 17:35:39.235 [main] INFO  hagrid.demand.LogisticsDataProcessor - Reading data from file: phd/input/hubs/standorte_von_paket.net/gls_paketnet_list.csv
2024-07-02 17:35:39.401 [main] INFO  hagrid.demand.LogisticsDataProcessor - Read 92 entries from file: phd/input/hubs/standorte_von_paket.net/gls_paketnet_list.csv
2024-07-02 17:35:39.403 [main] INFO  hagrid.demand.LogisticsDataProcessor - Reading data from file: phd/input/hubs/standorte_von_paket.net/hermes_paketnet_list.csv
2024-07-02 17:35:39.684 [main] INFO  hagrid.demand.LogisticsDataProcessor - Read 199 entries from file: phd/input/hubs/standorte_von_paket.net/hermes_paketnet_list.csv
2024-07-02 17:35:39.685 [main] INFO  hagrid.demand.LogisticsDataProcessor - Reading data from file: phd/input/hubs/standorte_von_paket.net/ups_paketnet_list.csv
2024-07-02 17:35:39.778 [main] INFO  hagrid.demand.LogisticsDataProcessor - Read 52 entries from file: phd/input/hubs/standorte_von_paket.net/ups_paketnet_list.csv
2024-07-02 17:35:39.781 [main] INFO  hagrid.utils.GeoUtils - No filtering applied. 'ALL' region specified. Returning all hubs.
2024-07-02 17:35:39.782 [main] INFO  hagrid.utils.GeoUtils - No filtering applied. 'ALL' region specified. Returning all hubs.
2024-07-02 17:35:39.783 [main] INFO  hagrid.demand.LogisticsDataProcessor - Loading carrier vehicle types...
2024-07-02 17:35:39.787 [main] INFO  org.matsim.freight.carriers.CarrierVehicleTypeReader - With early carrier vehicle type file formats, there will be an expected exception in the following.
2024-07-02 17:35:39.788 [main] INFO  org.matsim.core.utils.io.MatsimXmlParser - starting to parse xml from file phd/input/HAGRID_vehicleTypes2.0.xml ...
2024-07-02 17:35:39.789 [main] INFO  org.matsim.core.utils.io.IOUtils - Resolved phd/input/HAGRID_vehicleTypes2.0.xml to phd\input\HAGRID_vehicleTypes2.0.xml
2024-07-02 17:35:39.961 [main] INFO  org.matsim.core.utils.io.MatsimXmlParser - Trying to load http://www.matsim.org/files/dtd/vehicleDefinitions_v2.0.xsd. In some cases (e.g. network interface up but no connection), this may take a bit.
2024-07-02 17:35:40.054 [main] INFO  org.matsim.core.utils.io.MatsimXmlParser - Trying to load http://www.matsim.org/files/dtd/matsimCommon.xsd. In some cases (e.g. network interface up but no connection), this may take a bit.
2024-07-02 17:35:40.093 [main] INFO  org.matsim.core.utils.io.MatsimXmlParser - Trying to load http://www.matsim.org/files/dtd/vehicleDefinitionsEnumTypes.xsd. In some cases (e.g. network interface up but no connection), this may take a bit.
2024-07-02 17:35:40.156 [main] INFO  org.matsim.freight.carriers.CarrierVehicleTypeReader - Using central vehicle parser
2024-07-02 17:35:40.161 [main] INFO  org.matsim.vehicles.MatsimVehicleReader - Found following schemaLocation in vehicle definition file: http://www.matsim.org/files/dtd http://www.matsim.org/files/dtd/vehicleDefinitions_v2.0.xsd
2024-07-02 17:35:40.164 [main] INFO  org.matsim.vehicles.VehicleReaderV2 - Using org.matsim.vehicles.VehicleReaderV2
2024-07-02 17:35:40.210 [main] INFO  hagrid.demand.LogisticsDataProcessor - Logistics data processing completed.
2024-07-02 17:35:40.212 [main] INFO  hagrid.App - Logistics data processing completed.
2024-07-02 17:35:40.213 [main] INFO  hagrid.App - Initializing DemandProcessor...
2024-07-02 17:35:40.215 [main] INFO  hagrid.App - Starting demand data processing...
2024-07-02 17:35:40.218 [main] INFO  hagrid.demand.DemandProcessor - Reading freight demand data from file: T:/bienzeisler/USEfUL-XT/matsim-hanover/01_MATSimModelCreator/vm-hochrechnung_matsim-punkte_epsg25832_mit_plz_v4_b2b.shp
2024-07-02 17:35:40.220 [main] WARN  org.matsim.core.utils.gis.GeoFileReader - Unsafe method! store.dispose() is not called from within this method
2024-07-02 17:35:40.572 [main] INFO  org.matsim.core.utils.gis.GeoFileReader - features to read #46565
2024-07-02 17:35:40.581 [main] INFO  org.matsim.core.utils.misc.Counter - features read #1
2024-07-02 17:35:40.582 [main] INFO  org.matsim.core.utils.misc.Counter - features read #2
2024-07-02 17:35:40.584 [main] INFO  org.matsim.core.utils.misc.Counter - features read #4
2024-07-02 17:35:40.586 [main] INFO  org.matsim.core.utils.misc.Counter - features read #8
2024-07-02 17:35:40.589 [main] INFO  org.matsim.core.utils.misc.Counter - features read #16
2024-07-02 17:35:40.597 [main] INFO  org.matsim.core.utils.misc.Counter - features read #32
2024-07-02 17:35:40.635 [main] INFO  org.matsim.core.utils.misc.Counter - features read #64
2024-07-02 17:35:40.650 [main] INFO  org.matsim.core.utils.misc.Counter - features read #128
2024-07-02 17:35:40.672 [main] INFO  org.matsim.core.utils.misc.Counter - features read #256
2024-07-02 17:35:40.742 [main] INFO  org.matsim.core.utils.misc.Counter - features read #512
2024-07-02 17:35:40.789 [main] INFO  org.matsim.core.utils.misc.Counter - features read #1024
2024-07-02 17:35:40.872 [main] INFO  org.matsim.core.utils.misc.Counter - features read #2048
2024-07-02 17:35:40.974 [main] INFO  org.matsim.core.utils.misc.Counter - features read #4096
2024-07-02 17:35:41.156 [main] INFO  org.matsim.core.utils.misc.Counter - features read #8192
2024-07-02 17:35:41.396 [main] INFO  org.matsim.core.utils.misc.Counter - features read #16384
2024-07-02 17:35:41.791 [main] INFO  org.matsim.core.utils.misc.Counter - features read #32768
2024-07-02 17:35:42.181 [main] INFO  org.matsim.core.utils.misc.Counter - features read #46565
2024-07-02 17:35:42.185 [main] INFO  hagrid.utils.GeoUtils - No filtering applied. 'ALL' region specified. Returning all features.
2024-07-02 17:35:42.944 [main] INFO  hagrid.demand.DemandProcessor - Total Number of Deliveries: 105984
2024-07-02 17:35:42.944 [main] INFO  hagrid.demand.DemandProcessor - Total Number of Parcels: 196885
2024-07-02 17:35:43.080 [main] INFO  hagrid.demand.DemandProcessor - Demand Border: 600
2024-07-02 17:35:43.084 [main] INFO  hagrid.demand.DemandProcessor - Need for Split: dhl_31275: Number of Deliveries: 1557
2024-07-02 17:35:43.094 [main] INFO  hagrid.demand.DemandProcessor - Initializing KMeans clustering with 3 clusters...
2024-07-02 17:35:43.354 [main] INFO  hagrid.demand.DemandProcessor - Cluster 1: 519 features
2024-07-02 17:35:43.356 [main] INFO  hagrid.demand.DemandProcessor - Cluster 2: 519 features
2024-07-02 17:35:43.358 [main] INFO  hagrid.demand.DemandProcessor - Cluster 3: 519 features
2024-07-02 17:35:43.359 [main] INFO  hagrid.demand.DemandProcessor - Total number of clusters created: 3
2024-07-02 17:35:45.112 [main] INFO  hagrid.demand.DemandProcessor - Chart saved successfully at: phd/output/demand_clustering/ClusterResults_dhl_31275.png
2024-07-02 17:35:45.122 [main] INFO  hagrid.demand.DemandProcessor - Assigned Demand for new Carrier dhl_31275_0: 519
2024-07-02 17:35:45.124 [main] INFO  hagrid.demand.DemandProcessor - Assigned Demand for new Carrier dhl_31275_1: 519
2024-07-02 17:35:45.125 [main] INFO  hagrid.demand.DemandProcessor - Assigned Demand for new Carrier dhl_31275_2: 519
2024-07-02 17:35:45.128 [main] INFO  hagrid.demand.DemandProcessor - Need for Split: dhl_30880: Number of Deliveries: 950
2024-07-02 17:35:45.133 [main] INFO  hagrid.demand.DemandProcessor - Initializing KMeans clustering with 2 clusters...
2024-07-02 17:35:45.151 [main] INFO  hagrid.demand.DemandProcessor - Cluster 1: 475 features
2024-07-02 17:35:45.152 [main] INFO  hagrid.demand.DemandProcessor - Cluster 2: 475 features
2024-07-02 17:35:45.153 [main] INFO  hagrid.demand.DemandProcessor - Total number of clusters created: 2
2024-07-02 17:35:46.272 [main] INFO  hagrid.demand.DemandProcessor - Chart saved successfully at: phd/output/demand_clustering/ClusterResults_dhl_30880.png
2024-07-02 17:35:46.274 [main] INFO  hagrid.demand.DemandProcessor - Assigned Demand for new Carrier dhl_30880_0: 475
2024-07-02 17:35:46.274 [main] INFO  hagrid.demand.DemandProcessor - Assigned Demand for new Carrier dhl_30880_1: 475
2024-07-02 17:35:46.277 [main] INFO  hagrid.demand.DemandProcessor - Need for Split: dhl_31311: Number of Deliveries: 839
2024-07-02 17:35:46.278 [main] INFO  hagrid.demand.DemandProcessor - Initializing KMeans clustering with 2 clusters...
2024-07-02 17:35:46.288 [main] INFO  hagrid.demand.DemandProcessor - Cluster 1: 420 features
2024-07-02 17:35:46.290 [main] INFO  hagrid.demand.DemandProcessor - Cluster 2: 419 features
2024-07-02 17:35:46.290 [main] INFO  hagrid.demand.DemandProcessor - Total number of clusters created: 2
2024-07-02 17:35:46.706 [main] INFO  hagrid.demand.DemandProcessor - Chart saved successfully at: phd/output/demand_clustering/ClusterResults_dhl_31311.png
2024-07-02 17:35:46.707 [main] INFO  hagrid.demand.DemandProcessor - Assigned Demand for new Carrier dhl_31311_0: 420
2024-07-02 17:35:46.708 [main] INFO  hagrid.demand.DemandProcessor - Assigned Demand for new Carrier dhl_31311_1: 419
2024-07-02 17:35:46.709 [main] INFO  hagrid.demand.DemandProcessor - Need for Split: ups_31535: Number of Deliveries: 719
2024-07-02 17:35:46.711 [main] INFO  hagrid.demand.DemandProcessor - Initializing KMeans clustering with 2 clusters...
2024-07-02 17:35:46.720 [main] INFO  hagrid.demand.DemandProcessor - Cluster 1: 360 features
2024-07-02 17:35:46.721 [main] INFO  hagrid.demand.DemandProcessor - Cluster 2: 359 features
2024-07-02 17:35:46.722 [main] INFO  hagrid.demand.DemandProcessor - Total number of clusters created: 2
2024-07-02 17:35:46.896 [main] INFO  hagrid.demand.DemandProcessor - Chart saved successfully at: phd/output/demand_clustering/ClusterResults_ups_31535.png
2024-07-02 17:35:46.897 [main] INFO  hagrid.demand.DemandProcessor - Assigned Demand for new Carrier ups_31535_0: 360
2024-07-02 17:35:46.898 [main] INFO  hagrid.demand.DemandProcessor - Assigned Demand for new Carrier ups_31535_1: 359
2024-07-02 17:35:46.899 [main] INFO  hagrid.demand.DemandProcessor - Need for Split: ups_31515: Number of Deliveries: 668
2024-07-02 17:35:46.901 [main] INFO  hagrid.demand.DemandProcessor - Initializing KMeans clustering with 2 clusters...
2024-07-02 17:35:46.909 [main] INFO  hagrid.demand.DemandProcessor - Cluster 1: 334 features
2024-07-02 17:35:46.912 [main] INFO  hagrid.demand.DemandProcessor - Cluster 2: 334 features
2024-07-02 17:35:46.913 [main] INFO  hagrid.demand.DemandProcessor - Total number of clusters created: 2
2024-07-02 17:35:47.096 [main] INFO  hagrid.demand.DemandProcessor - Chart saved successfully at: phd/output/demand_clustering/ClusterResults_ups_31515.png
2024-07-02 17:35:47.098 [main] INFO  hagrid.demand.DemandProcessor - Assigned Demand for new Carrier ups_31515_0: 334
2024-07-02 17:35:47.098 [main] INFO  hagrid.demand.DemandProcessor - Assigned Demand for new Carrier ups_31515_1: 334
2024-07-02 17:35:47.099 [main] INFO  hagrid.demand.DemandProcessor - Need for Split: dhl_30419: Number of Deliveries: 838
2024-07-02 17:35:47.102 [main] INFO  hagrid.demand.DemandProcessor - Initializing KMeans clustering with 2 clusters...
2024-07-02 17:35:47.110 [main] INFO  hagrid.demand.DemandProcessor - Cluster 1: 419 features
2024-07-02 17:35:47.111 [main] INFO  hagrid.demand.DemandProcessor - Cluster 2: 419 features
2024-07-02 17:35:47.113 [main] INFO  hagrid.demand.DemandProcessor - Total number of clusters created: 2
2024-07-02 17:35:47.312 [main] INFO  hagrid.demand.DemandProcessor - Chart saved successfully at: phd/output/demand_clustering/ClusterResults_dhl_30419.png
2024-07-02 17:35:47.313 [main] INFO  hagrid.demand.DemandProcessor - Assigned Demand for new Carrier dhl_30419_0: 419
2024-07-02 17:35:47.313 [main] INFO  hagrid.demand.DemandProcessor - Assigned Demand for new Carrier dhl_30419_1: 419
2024-07-02 17:35:47.315 [main] INFO  hagrid.demand.DemandProcessor - Need for Split: dhl_30519: Number of Deliveries: 650
2024-07-02 17:35:47.316 [main] INFO  hagrid.demand.DemandProcessor - Initializing KMeans clustering with 2 clusters...
2024-07-02 17:35:47.336 [main] INFO  hagrid.demand.DemandProcessor - Cluster 1: 325 features
2024-07-02 17:35:47.337 [main] INFO  hagrid.demand.DemandProcessor - Cluster 2: 325 features
2024-07-02 17:35:47.338 [main] INFO  hagrid.demand.DemandProcessor - Total number of clusters created: 2
2024-07-02 17:35:47.528 [main] INFO  hagrid.demand.DemandProcessor - Chart saved successfully at: phd/output/demand_clustering/ClusterResults_dhl_30519.png
2024-07-02 17:35:47.529 [main] INFO  hagrid.demand.DemandProcessor - Assigned Demand for new Carrier dhl_30519_0: 325
2024-07-02 17:35:47.530 [main] INFO  hagrid.demand.DemandProcessor - Assigned Demand for new Carrier dhl_30519_1: 325
2024-07-02 17:35:47.531 [main] INFO  hagrid.demand.DemandProcessor - Need for Split: dhl_30938: Number of Deliveries: 861
2024-07-02 17:35:47.532 [main] INFO  hagrid.demand.DemandProcessor - Initializing KMeans clustering with 2 clusters...
2024-07-02 17:35:47.561 [main] INFO  hagrid.demand.DemandProcessor - Cluster 1: 430 features
2024-07-02 17:35:47.562 [main] INFO  hagrid.demand.DemandProcessor - Cluster 2: 431 features
2024-07-02 17:35:47.563 [main] INFO  hagrid.demand.DemandProcessor - Total number of clusters created: 2
2024-07-02 17:35:47.758 [main] INFO  hagrid.demand.DemandProcessor - Chart saved successfully at: phd/output/demand_clustering/ClusterResults_dhl_30938.png
2024-07-02 17:35:47.760 [main] INFO  hagrid.demand.DemandProcessor - Assigned Demand for new Carrier dhl_30938_0: 430
2024-07-02 17:35:47.761 [main] INFO  hagrid.demand.DemandProcessor - Assigned Demand for new Carrier dhl_30938_1: 431
2024-07-02 17:35:47.764 [main] INFO  hagrid.demand.DemandProcessor - Need for Split: dhl_30916: Number of Deliveries: 945
2024-07-02 17:35:47.765 [main] INFO  hagrid.demand.DemandProcessor - Initializing KMeans clustering with 2 clusters...
2024-07-02 17:35:47.787 [main] INFO  hagrid.demand.DemandProcessor - Cluster 1: 472 features
2024-07-02 17:35:47.788 [main] INFO  hagrid.demand.DemandProcessor - Cluster 2: 473 features
2024-07-02 17:35:47.789 [main] INFO  hagrid.demand.DemandProcessor - Total number of clusters created: 2
2024-07-02 17:35:48.012 [main] INFO  hagrid.demand.DemandProcessor - Chart saved successfully at: phd/output/demand_clustering/ClusterResults_dhl_30916.png
2024-07-02 17:35:48.014 [main] INFO  hagrid.demand.DemandProcessor - Assigned Demand for new Carrier dhl_30916_0: 472
2024-07-02 17:35:48.015 [main] INFO  hagrid.demand.DemandProcessor - Assigned Demand for new Carrier dhl_30916_1: 473
2024-07-02 17:35:48.016 [main] INFO  hagrid.demand.DemandProcessor - Need for Split: ups_31275: Number of Deliveries: 729
2024-07-02 17:35:48.017 [main] INFO  hagrid.demand.DemandProcessor - Initializing KMeans clustering with 2 clusters...
2024-07-02 17:35:48.030 [main] INFO  hagrid.demand.DemandProcessor - Cluster 1: 364 features
2024-07-02 17:35:48.031 [main] INFO  hagrid.demand.DemandProcessor - Cluster 2: 365 features
2024-07-02 17:35:48.032 [main] INFO  hagrid.demand.DemandProcessor - Total number of clusters created: 2
2024-07-02 17:35:48.226 [main] INFO  hagrid.demand.DemandProcessor - Chart saved successfully at: phd/output/demand_clustering/ClusterResults_ups_31275.png
2024-07-02 17:35:48.227 [main] INFO  hagrid.demand.DemandProcessor - Assigned Demand for new Carrier ups_31275_0: 364
2024-07-02 17:35:48.228 [main] INFO  hagrid.demand.DemandProcessor - Assigned Demand for new Carrier ups_31275_1: 365
2024-07-02 17:35:48.230 [main] INFO  hagrid.demand.DemandProcessor - Need for Split: dhl_31303: Number of Deliveries: 1073
2024-07-02 17:35:48.231 [main] INFO  hagrid.demand.DemandProcessor - Initializing KMeans clustering with 2 clusters...
2024-07-02 17:35:48.259 [main] INFO  hagrid.demand.DemandProcessor - Cluster 1: 536 features
2024-07-02 17:35:48.261 [main] INFO  hagrid.demand.DemandProcessor - Cluster 2: 537 features
2024-07-02 17:35:48.263 [main] INFO  hagrid.demand.DemandProcessor - Total number of clusters created: 2
2024-07-02 17:35:48.476 [main] INFO  hagrid.demand.DemandProcessor - Chart saved successfully at: phd/output/demand_clustering/ClusterResults_dhl_31303.png
2024-07-02 17:35:48.478 [main] INFO  hagrid.demand.DemandProcessor - Assigned Demand for new Carrier dhl_31303_0: 536
2024-07-02 17:35:48.480 [main] INFO  hagrid.demand.DemandProcessor - Assigned Demand for new Carrier dhl_31303_1: 537
2024-07-02 17:35:48.481 [main] INFO  hagrid.demand.DemandProcessor - Need for Split: dhl_30952: Number of Deliveries: 692
2024-07-02 17:35:48.482 [main] INFO  hagrid.demand.DemandProcessor - Initializing KMeans clustering with 2 clusters...
2024-07-02 17:35:48.498 [main] INFO  hagrid.demand.DemandProcessor - Cluster 1: 346 features
2024-07-02 17:35:48.499 [main] INFO  hagrid.demand.DemandProcessor - Cluster 2: 346 features
2024-07-02 17:35:48.501 [main] INFO  hagrid.demand.DemandProcessor - Total number of clusters created: 2
2024-07-02 17:35:48.721 [main] INFO  hagrid.demand.DemandProcessor - Chart saved successfully at: phd/output/demand_clustering/ClusterResults_dhl_30952.png
2024-07-02 17:35:48.722 [main] INFO  hagrid.demand.DemandProcessor - Assigned Demand for new Carrier dhl_30952_0: 346
2024-07-02 17:35:48.723 [main] INFO  hagrid.demand.DemandProcessor - Assigned Demand for new Carrier dhl_30952_1: 346
2024-07-02 17:35:48.724 [main] INFO  hagrid.demand.DemandProcessor - Need for Split: dpd_30855: Number of Deliveries: 645
2024-07-02 17:35:48.726 [main] INFO  hagrid.demand.DemandProcessor - Initializing KMeans clustering with 2 clusters...
2024-07-02 17:35:48.741 [main] INFO  hagrid.demand.DemandProcessor - Cluster 1: 322 features
2024-07-02 17:35:48.742 [main] INFO  hagrid.demand.DemandProcessor - Cluster 2: 323 features
2024-07-02 17:35:48.744 [main] INFO  hagrid.demand.DemandProcessor - Total number of clusters created: 2
2024-07-02 17:35:48.955 [main] INFO  hagrid.demand.DemandProcessor - Chart saved successfully at: phd/output/demand_clustering/ClusterResults_dpd_30855.png
2024-07-02 17:35:48.957 [main] INFO  hagrid.demand.DemandProcessor - Assigned Demand for new Carrier dpd_30855_0: 322
2024-07-02 17:35:48.958 [main] INFO  hagrid.demand.DemandProcessor - Assigned Demand for new Carrier dpd_30855_1: 323
2024-07-02 17:35:48.961 [main] INFO  hagrid.demand.DemandProcessor - Need for Split: dhl_30855: Number of Deliveries: 1052
2024-07-02 17:35:48.964 [main] INFO  hagrid.demand.DemandProcessor - Initializing KMeans clustering with 2 clusters...
2024-07-02 17:35:48.986 [main] INFO  hagrid.demand.DemandProcessor - Cluster 1: 526 features
2024-07-02 17:35:48.989 [main] INFO  hagrid.demand.DemandProcessor - Cluster 2: 526 features
2024-07-02 17:35:48.989 [main] INFO  hagrid.demand.DemandProcessor - Total number of clusters created: 2
2024-07-02 17:35:49.209 [main] INFO  hagrid.demand.DemandProcessor - Chart saved successfully at: phd/output/demand_clustering/ClusterResults_dhl_30855.png
2024-07-02 17:35:49.212 [main] INFO  hagrid.demand.DemandProcessor - Assigned Demand for new Carrier dhl_30855_0: 526
2024-07-02 17:35:49.212 [main] INFO  hagrid.demand.DemandProcessor - Assigned Demand for new Carrier dhl_30855_1: 526
2024-07-02 17:35:49.214 [main] INFO  hagrid.demand.DemandProcessor - Need for Split: dhl_30559: Number of Deliveries: 682
2024-07-02 17:35:49.215 [main] INFO  hagrid.demand.DemandProcessor - Initializing KMeans clustering with 2 clusters...
2024-07-02 17:35:49.227 [main] INFO  hagrid.demand.DemandProcessor - Cluster 1: 341 features
2024-07-02 17:35:49.228 [main] INFO  hagrid.demand.DemandProcessor - Cluster 2: 341 features
2024-07-02 17:35:49.230 [main] INFO  hagrid.demand.DemandProcessor - Total number of clusters created: 2
2024-07-02 17:35:49.419 [main] INFO  hagrid.demand.DemandProcessor - Chart saved successfully at: phd/output/demand_clustering/ClusterResults_dhl_30559.png
2024-07-02 17:35:49.421 [main] INFO  hagrid.demand.DemandProcessor - Assigned Demand for new Carrier dhl_30559_0: 341
2024-07-02 17:35:49.421 [main] INFO  hagrid.demand.DemandProcessor - Assigned Demand for new Carrier dhl_30559_1: 341
2024-07-02 17:35:49.423 [main] INFO  hagrid.demand.DemandProcessor - Need for Split: dpd_31535: Number of Deliveries: 641
2024-07-02 17:35:49.424 [main] INFO  hagrid.demand.DemandProcessor - Initializing KMeans clustering with 2 clusters...
2024-07-02 17:35:49.443 [main] INFO  hagrid.demand.DemandProcessor - Cluster 1: 320 features
2024-07-02 17:35:49.444 [main] INFO  hagrid.demand.DemandProcessor - Cluster 2: 321 features
2024-07-02 17:35:49.445 [main] INFO  hagrid.demand.DemandProcessor - Total number of clusters created: 2
2024-07-02 17:35:49.644 [main] INFO  hagrid.demand.DemandProcessor - Chart saved successfully at: phd/output/demand_clustering/ClusterResults_dpd_31535.png
2024-07-02 17:35:49.646 [main] INFO  hagrid.demand.DemandProcessor - Assigned Demand for new Carrier dpd_31535_0: 320
2024-07-02 17:35:49.647 [main] INFO  hagrid.demand.DemandProcessor - Assigned Demand for new Carrier dpd_31535_1: 321
2024-07-02 17:35:49.649 [main] INFO  hagrid.demand.DemandProcessor - Need for Split: dhl_30890: Number of Deliveries: 1138
2024-07-02 17:35:49.651 [main] INFO  hagrid.demand.DemandProcessor - Initializing KMeans clustering with 2 clusters...
2024-07-02 17:35:49.702 [main] INFO  hagrid.demand.DemandProcessor - Cluster 1: 569 features
2024-07-02 17:35:49.703 [main] INFO  hagrid.demand.DemandProcessor - Cluster 2: 569 features
2024-07-02 17:35:49.704 [main] INFO  hagrid.demand.DemandProcessor - Total number of clusters created: 2
2024-07-02 17:35:49.936 [main] INFO  hagrid.demand.DemandProcessor - Chart saved successfully at: phd/output/demand_clustering/ClusterResults_dhl_30890.png
2024-07-02 17:35:49.937 [main] INFO  hagrid.demand.DemandProcessor - Assigned Demand for new Carrier dhl_30890_0: 569
2024-07-02 17:35:49.938 [main] INFO  hagrid.demand.DemandProcessor - Assigned Demand for new Carrier dhl_30890_1: 569
2024-07-02 17:35:49.939 [main] INFO  hagrid.demand.DemandProcessor - Need for Split: ups_30855: Number of Deliveries: 717
2024-07-02 17:35:49.940 [main] INFO  hagrid.demand.DemandProcessor - Initializing KMeans clustering with 2 clusters...
2024-07-02 17:35:49.952 [main] INFO  hagrid.demand.DemandProcessor - Cluster 1: 359 features
2024-07-02 17:35:49.953 [main] INFO  hagrid.demand.DemandProcessor - Cluster 2: 358 features
2024-07-02 17:35:49.954 [main] INFO  hagrid.demand.DemandProcessor - Total number of clusters created: 2
2024-07-02 17:35:50.133 [main] INFO  hagrid.demand.DemandProcessor - Chart saved successfully at: phd/output/demand_clustering/ClusterResults_ups_30855.png
2024-07-02 17:35:50.134 [main] INFO  hagrid.demand.DemandProcessor - Assigned Demand for new Carrier ups_30855_0: 359
2024-07-02 17:35:50.135 [main] INFO  hagrid.demand.DemandProcessor - Assigned Demand for new Carrier ups_30855_1: 358
2024-07-02 17:35:50.136 [main] INFO  hagrid.demand.DemandProcessor - Need for Split: dhl_30826: Number of Deliveries: 648
2024-07-02 17:35:50.136 [main] INFO  hagrid.demand.DemandProcessor - Initializing KMeans clustering with 2 clusters...
2024-07-02 17:35:50.148 [main] INFO  hagrid.demand.DemandProcessor - Cluster 1: 324 features
2024-07-02 17:35:50.150 [main] INFO  hagrid.demand.DemandProcessor - Cluster 2: 324 features
2024-07-02 17:35:50.151 [main] INFO  hagrid.demand.DemandProcessor - Total number of clusters created: 2
2024-07-02 17:35:50.329 [main] INFO  hagrid.demand.DemandProcessor - Chart saved successfully at: phd/output/demand_clustering/ClusterResults_dhl_30826.png
2024-07-02 17:35:50.330 [main] INFO  hagrid.demand.DemandProcessor - Assigned Demand for new Carrier dhl_30826_0: 324
2024-07-02 17:35:50.331 [main] INFO  hagrid.demand.DemandProcessor - Assigned Demand for new Carrier dhl_30826_1: 324
2024-07-02 17:35:50.333 [main] INFO  hagrid.demand.DemandProcessor - Need for Split: dhl_30926: Number of Deliveries: 924
2024-07-02 17:35:50.334 [main] INFO  hagrid.demand.DemandProcessor - Initializing KMeans clustering with 2 clusters...
2024-07-02 17:35:50.344 [main] INFO  hagrid.demand.DemandProcessor - Cluster 1: 462 features
2024-07-02 17:35:50.345 [main] INFO  hagrid.demand.DemandProcessor - Cluster 2: 462 features
2024-07-02 17:35:50.346 [main] INFO  hagrid.demand.DemandProcessor - Total number of clusters created: 2
2024-07-02 17:35:50.535 [main] INFO  hagrid.demand.DemandProcessor - Chart saved successfully at: phd/output/demand_clustering/ClusterResults_dhl_30926.png
2024-07-02 17:35:50.536 [main] INFO  hagrid.demand.DemandProcessor - Assigned Demand for new Carrier dhl_30926_0: 462
2024-07-02 17:35:50.537 [main] INFO  hagrid.demand.DemandProcessor - Assigned Demand for new Carrier dhl_30926_1: 462
2024-07-02 17:35:50.538 [main] INFO  hagrid.demand.DemandProcessor - Need for Split: dhl_31832: Number of Deliveries: 1059
2024-07-02 17:35:50.539 [main] INFO  hagrid.demand.DemandProcessor - Initializing KMeans clustering with 2 clusters...
2024-07-02 17:35:50.546 [main] INFO  hagrid.demand.DemandProcessor - Cluster 1: 530 features
2024-07-02 17:35:50.548 [main] INFO  hagrid.demand.DemandProcessor - Cluster 2: 529 features
2024-07-02 17:35:50.548 [main] INFO  hagrid.demand.DemandProcessor - Total number of clusters created: 2
2024-07-02 17:35:50.749 [main] INFO  hagrid.demand.DemandProcessor - Chart saved successfully at: phd/output/demand_clustering/ClusterResults_dhl_31832.png
2024-07-02 17:35:50.750 [main] INFO  hagrid.demand.DemandProcessor - Assigned Demand for new Carrier dhl_31832_0: 530
2024-07-02 17:35:50.751 [main] INFO  hagrid.demand.DemandProcessor - Assigned Demand for new Carrier dhl_31832_1: 529
2024-07-02 17:35:50.752 [main] INFO  hagrid.demand.DemandProcessor - Need for Split: dhl_31535: Number of Deliveries: 1661
2024-07-02 17:35:50.753 [main] INFO  hagrid.demand.DemandProcessor - Initializing KMeans clustering with 3 clusters...
2024-07-02 17:35:50.782 [main] INFO  hagrid.demand.DemandProcessor - Cluster 1: 554 features
2024-07-02 17:35:50.783 [main] INFO  hagrid.demand.DemandProcessor - Cluster 2: 554 features
2024-07-02 17:35:50.784 [main] INFO  hagrid.demand.DemandProcessor - Cluster 3: 553 features
2024-07-02 17:35:50.785 [main] INFO  hagrid.demand.DemandProcessor - Total number of clusters created: 3
2024-07-02 17:35:50.972 [main] INFO  hagrid.demand.DemandProcessor - Chart saved successfully at: phd/output/demand_clustering/ClusterResults_dhl_31535.png
2024-07-02 17:35:50.973 [main] INFO  hagrid.demand.DemandProcessor - Assigned Demand for new Carrier dhl_31535_0: 554
2024-07-02 17:35:50.973 [main] INFO  hagrid.demand.DemandProcessor - Assigned Demand for new Carrier dhl_31535_1: 554
2024-07-02 17:35:50.974 [main] INFO  hagrid.demand.DemandProcessor - Assigned Demand for new Carrier dhl_31535_2: 553
2024-07-02 17:35:50.975 [main] INFO  hagrid.demand.DemandProcessor - Need for Split: dpd_31275: Number of Deliveries: 620
2024-07-02 17:35:50.976 [main] INFO  hagrid.demand.DemandProcessor - Initializing KMeans clustering with 2 clusters...
2024-07-02 17:35:50.980 [main] INFO  hagrid.demand.DemandProcessor - Cluster 1: 310 features
2024-07-02 17:35:50.980 [main] INFO  hagrid.demand.DemandProcessor - Cluster 2: 310 features
2024-07-02 17:35:50.981 [main] INFO  hagrid.demand.DemandProcessor - Total number of clusters created: 2
2024-07-02 17:35:51.114 [main] INFO  hagrid.demand.DemandProcessor - Chart saved successfully at: phd/output/demand_clustering/ClusterResults_dpd_31275.png
2024-07-02 17:35:51.115 [main] INFO  hagrid.demand.DemandProcessor - Assigned Demand for new Carrier dpd_31275_0: 310
2024-07-02 17:35:51.116 [main] INFO  hagrid.demand.DemandProcessor - Assigned Demand for new Carrier dpd_31275_1: 310
2024-07-02 17:35:51.117 [main] INFO  hagrid.demand.DemandProcessor - Need for Split: dhl_31515: Number of Deliveries: 1407
2024-07-02 17:35:51.118 [main] INFO  hagrid.demand.DemandProcessor - Initializing KMeans clustering with 3 clusters...
2024-07-02 17:35:51.137 [main] INFO  hagrid.demand.DemandProcessor - Cluster 1: 469 features
2024-07-02 17:35:51.138 [main] INFO  hagrid.demand.DemandProcessor - Cluster 2: 469 features
2024-07-02 17:35:51.140 [main] INFO  hagrid.demand.DemandProcessor - Cluster 3: 469 features
2024-07-02 17:35:51.140 [main] INFO  hagrid.demand.DemandProcessor - Total number of clusters created: 3
2024-07-02 17:35:51.304 [main] INFO  hagrid.demand.DemandProcessor - Chart saved successfully at: phd/output/demand_clustering/ClusterResults_dhl_31515.png
2024-07-02 17:35:51.305 [main] INFO  hagrid.demand.DemandProcessor - Assigned Demand for new Carrier dhl_31515_0: 469
2024-07-02 17:35:51.306 [main] INFO  hagrid.demand.DemandProcessor - Assigned Demand for new Carrier dhl_31515_1: 469
2024-07-02 17:35:51.307 [main] INFO  hagrid.demand.DemandProcessor - Assigned Demand for new Carrier dhl_31515_2: 469
2024-07-02 17:35:51.308 [main] INFO  hagrid.demand.DemandProcessor - Need for Split: dhl_30823: Number of Deliveries: 657
2024-07-02 17:35:51.308 [main] INFO  hagrid.demand.DemandProcessor - Initializing KMeans clustering with 2 clusters...
2024-07-02 17:35:51.313 [main] INFO  hagrid.demand.DemandProcessor - Cluster 1: 328 features
2024-07-02 17:35:51.314 [main] INFO  hagrid.demand.DemandProcessor - Cluster 2: 329 features
2024-07-02 17:35:51.316 [main] INFO  hagrid.demand.DemandProcessor - Total number of clusters created: 2
2024-07-02 17:35:51.439 [main] INFO  hagrid.demand.DemandProcessor - Chart saved successfully at: phd/output/demand_clustering/ClusterResults_dhl_30823.png
2024-07-02 17:35:51.440 [main] INFO  hagrid.demand.DemandProcessor - Assigned Demand for new Carrier dhl_30823_0: 328
2024-07-02 17:35:51.440 [main] INFO  hagrid.demand.DemandProcessor - Assigned Demand for new Carrier dhl_30823_1: 329
2024-07-02 17:35:51.441 [main] INFO  hagrid.demand.DemandProcessor - Need for Split: dhl_30966: Number of Deliveries: 648
2024-07-02 17:35:51.443 [main] INFO  hagrid.demand.DemandProcessor - Initializing KMeans clustering with 2 clusters...
2024-07-02 17:35:51.446 [main] INFO  hagrid.demand.DemandProcessor - Cluster 1: 324 features
2024-07-02 17:35:51.447 [main] INFO  hagrid.demand.DemandProcessor - Cluster 2: 324 features
2024-07-02 17:35:51.447 [main] INFO  hagrid.demand.DemandProcessor - Total number of clusters created: 2
2024-07-02 17:35:51.565 [main] INFO  hagrid.demand.DemandProcessor - Chart saved successfully at: phd/output/demand_clustering/ClusterResults_dhl_30966.png
2024-07-02 17:35:51.567 [main] INFO  hagrid.demand.DemandProcessor - Assigned Demand for new Carrier dhl_30966_0: 324
2024-07-02 17:35:51.568 [main] INFO  hagrid.demand.DemandProcessor - Assigned Demand for new Carrier dhl_30966_1: 324
2024-07-02 17:35:51.570 [main] INFO  hagrid.demand.DemandProcessor - Need for Split: dhl_30900: Number of Deliveries: 1308
2024-07-02 17:35:51.571 [main] INFO  hagrid.demand.DemandProcessor - Initializing KMeans clustering with 3 clusters...
2024-07-02 17:35:51.585 [main] INFO  hagrid.demand.DemandProcessor - Cluster 1: 436 features
2024-07-02 17:35:51.586 [main] INFO  hagrid.demand.DemandProcessor - Cluster 2: 436 features
2024-07-02 17:35:51.587 [main] INFO  hagrid.demand.DemandProcessor - Cluster 3: 436 features
2024-07-02 17:35:51.587 [main] INFO  hagrid.demand.DemandProcessor - Total number of clusters created: 3
2024-07-02 17:35:51.761 [main] INFO  hagrid.demand.DemandProcessor - Chart saved successfully at: phd/output/demand_clustering/ClusterResults_dhl_30900.png
2024-07-02 17:35:51.762 [main] INFO  hagrid.demand.DemandProcessor - Assigned Demand for new Carrier dhl_30900_0: 436
2024-07-02 17:35:51.762 [main] INFO  hagrid.demand.DemandProcessor - Assigned Demand for new Carrier dhl_30900_1: 436
2024-07-02 17:35:51.763 [main] INFO  hagrid.demand.DemandProcessor - Assigned Demand for new Carrier dhl_30900_2: 436
2024-07-02 17:35:51.763 [main] INFO  hagrid.demand.DemandProcessor - Need for Split: dhl_31319: Number of Deliveries: 945
2024-07-02 17:35:51.765 [main] INFO  hagrid.demand.DemandProcessor - Initializing KMeans clustering with 2 clusters...
2024-07-02 17:35:51.771 [main] INFO  hagrid.demand.DemandProcessor - Cluster 1: 473 features
2024-07-02 17:35:51.772 [main] INFO  hagrid.demand.DemandProcessor - Cluster 2: 472 features
2024-07-02 17:35:51.773 [main] INFO  hagrid.demand.DemandProcessor - Total number of clusters created: 2
2024-07-02 17:35:51.918 [main] INFO  hagrid.demand.DemandProcessor - Chart saved successfully at: phd/output/demand_clustering/ClusterResults_dhl_31319.png
2024-07-02 17:35:51.919 [main] INFO  hagrid.demand.DemandProcessor - Assigned Demand for new Carrier dhl_31319_0: 473
2024-07-02 17:35:51.919 [main] INFO  hagrid.demand.DemandProcessor - Assigned Demand for new Carrier dhl_31319_1: 472
2024-07-02 17:35:51.993 [main] INFO  hagrid.demand.DemandProcessor - Total Number of Deliveries: 105984
2024-07-02 17:35:51.993 [main] INFO  hagrid.demand.DemandProcessor - Total Number of Parcels: 196885
2024-07-02 17:35:51.994 [main] INFO  hagrid.demand.DemandProcessor - Validation completed successfully: Total number of deliveries and parcels match.
2024-07-02 17:35:51.995 [main] INFO  hagrid.demand.DemandProcessor - Freight demand data processing completed.
2024-07-02 17:35:51.995 [main] INFO  hagrid.App - Demand data processing completed.
2024-07-02 17:35:51.996 [main] INFO  hagrid.App - Initializing DeliveryGenerator...
2024-07-02 17:35:51.997 [main] INFO  hagrid.App - Starting delivery generation based on sorted Demand...
2024-07-02 17:35:51.998 [main] INFO  hagrid.demand.DeliveryGenerator - Generating parcels from sorted carrier demand...
2024-07-02 17:35:52.001 [main] INFO  hagrid.demand.DeliveryGenerator - Total Parcels from carrier demand: 105984
2024-07-02 17:35:52.545 [main] INFO  hagrid.utils.general.ParcelStatisticsLogger - === Overall Summary ===
  Total Deliveries      : 106.028
  Total B2B Deliveries  : 19.188
  Total Parcels         : 197.985
  Total B2B Parcels     : 47.252
  B2B Delivery Ratio    : 18,10%
  B2B Parcel Ratio      : 23,87%
  Average Weight        : 4,90
  Average B2B Weight    : 9,11
  Total Locker Deliveries: 44
  Total Locker Parcels: 1.100
  Locker Delivery Ratio : 0,04%
  Locker Parcel Ratio : 0,56%

2024-07-02 17:35:52.548 [main] INFO  hagrid.demand.DeliveryGenerator - Parcel generation completed.
2024-07-02 17:35:52.549 [main] INFO  hagrid.App - Delivery and parcel generation completed.
2024-07-02 17:35:52.549 [main] INFO  hagrid.App - Initializing CarrierGenerator...
2024-07-02 17:35:52.551 [main] INFO  hagrid.App - Starting carrier generation based on sorted demand...
2024-07-02 17:35:52.552 [main] INFO  hagrid.demand.CarrierGenerator - Generating carriers from sorted deliveries and parcels...
2024-07-02 17:35:52.552 [main] INFO  hagrid.demand.CarrierGenerator - Getting scenario elements...
2024-07-02 17:35:52.552 [main] INFO  hagrid.demand.CarrierGenerator - Scenario elements retrieved.
2024-07-02 17:35:52.731 [main] INFO  org.matsim.core.network.NetworkImpl - building LinkQuadTree for nodes: xrange(282281.45131461613,954092.9718280886); yrange(5239566.628775733,6025734.814523158)
2024-07-02 17:35:54.398 [main] INFO  org.matsim.core.network.NetworkImpl - Building LinkQuadTree took 1.816 seconds.
2024-07-02 17:36:27.335 [main] INFO  hagrid.demand.CarrierGenerator - Carrier with the most services: amazon_30855 with 598 services
2024-07-02 17:36:27.336 [main] INFO  hagrid.demand.CarrierGenerator - Carrier with the least services: hermes_30938 with 61 services
2024-07-02 17:36:27.338 [main] INFO  hagrid.demand.CarrierGenerator - Number of carriers with fewer than 5 services: 0
2024-07-02 17:36:27.338 [main] INFO  hagrid.demand.CarrierGenerator - Carriers with insufficient services: []
2024-07-02 17:36:27.339 [main] INFO  hagrid.demand.CarrierGenerator - Number of remaining carriers: 389
2024-07-02 17:36:27.339 [main] INFO  hagrid.demand.CarrierGenerator - Carriers generated: 389
2024-07-02 17:36:27.339 [main] INFO  hagrid.demand.CarrierGenerator - Validating carrier missed deliveries...
2024-07-02 17:36:27.340 [main] INFO  hagrid.demand.CarrierGenerator - Validation passed for all carriers and their missed parcel deliveries.
2024-07-02 17:36:27.340 [main] INFO  hagrid.demand.CarrierGenerator - Validation of carrier missed deliveries completed.
2024-07-02 17:36:27.341 [main] INFO  hagrid.demand.CarrierGenerator - Validating carrier services...
2024-07-02 17:36:27.386 [main] INFO  hagrid.demand.CarrierGenerator - Correction factor for Delivery Size Adjustment: 1
2024-07-02 17:36:27.508 [main] INFO  hagrid.demand.CarrierGenerator - Missed parcels for provider amazon: average rate 93,43%
2024-07-02 17:36:27.509 [main] INFO  hagrid.demand.CarrierGenerator - Expected rate for provider amazon: 93,00%
2024-07-02 17:36:27.509 [main] INFO  hagrid.demand.CarrierGenerator - Missed parcels for provider fedex: average rate 91,54%
2024-07-02 17:36:27.510 [main] INFO  hagrid.demand.CarrierGenerator - Expected rate for provider fedex: 92,00%
2024-07-02 17:36:27.510 [main] INFO  hagrid.demand.CarrierGenerator - Missed parcels for provider ups: average rate 91,82%
2024-07-02 17:36:27.512 [main] INFO  hagrid.demand.CarrierGenerator - Expected rate for provider ups: 92,00%
2024-07-02 17:36:27.512 [main] INFO  hagrid.demand.CarrierGenerator - Missed parcels for provider dpd: average rate 91,60%
2024-07-02 17:36:27.513 [main] INFO  hagrid.demand.CarrierGenerator - Expected rate for provider dpd: 92,00%
2024-07-02 17:36:27.513 [main] INFO  hagrid.demand.CarrierGenerator - Missed parcels for provider dhl: average rate 95,44%
2024-07-02 17:36:27.514 [main] INFO  hagrid.demand.CarrierGenerator - Expected rate for provider dhl: 96,00%
2024-07-02 17:36:27.514 [main] INFO  hagrid.demand.CarrierGenerator - Missed parcels for provider hermes: average rate 93,42%
2024-07-02 17:36:27.514 [main] INFO  hagrid.demand.CarrierGenerator - Expected rate for provider hermes: 93,00%
2024-07-02 17:36:27.515 [main] INFO  hagrid.demand.CarrierGenerator - Missed parcels for provider gls: average rate 92,86%
2024-07-02 17:36:27.516 [main] INFO  hagrid.demand.CarrierGenerator - Expected rate for provider gls: 93,00%
2024-07-02 17:36:27.725 [main] INFO  hagrid.demand.CarrierGenerator - === Delivery Statistics by Provider ===
Provider: amazon
  Total Services     : 12.592
  B2B Services       : 283
  Total Parcels      : 18.401
  B2B Parcels        : 532
  B2B Service Ratio  : 2,25%
  B2B Parcel Ratio   : 2,89%
  Total Weight       : 72658,95
  Total B2B Weight   : 5038,28
  Average Weight     : 3,95
  Average B2B Weight : 9,47

Provider: fedex
  Total Services     : 9.911
  B2B Services       : 2.115
  Total Parcels      : 13.225
  B2B Parcels        : 3.415
  B2B Service Ratio  : 21,34%
  B2B Parcel Ratio   : 25,82%
  Total Weight       : 69569,57
  Total B2B Weight   : 31769,43
  Average Weight     : 5,26
  Average B2B Weight : 9,30

Provider: ups
  Total Services     : 16.314
  B2B Services       : 3.286
  Total Parcels      : 26.491
  B2B Parcels        : 6.854
  B2B Service Ratio  : 20,14%
  B2B Parcel Ratio   : 25,87%
  Total Weight       : 137860,37
  Total B2B Weight   : 63238,30
  Average Weight     : 5,20
  Average B2B Weight : 9,23

Provider: dpd
  Total Services     : 14.390
  B2B Services       : 3.027
  Total Parcels      : 22.122
  B2B Parcels        : 5.919
  B2B Service Ratio  : 21,04%
  B2B Parcel Ratio   : 26,76%
  Total Weight       : 118329,44
  Total B2B Weight   : 56450,21
  Average Weight     : 5,35
  Average B2B Weight : 9,54

Provider: dhl
  Total Services     : 31.058
  B2B Services       : 5.879
  Total Parcels      : 87.462
  B2B Parcels        : 22.822
  B2B Service Ratio  : 18,93%
  B2B Parcel Ratio   : 26,09%
  Total Weight       : 463900,41
  Total B2B Weight   : 211983,81
  Average Weight     : 5,30
  Average B2B Weight : 9,29

Provider: hermes
  Total Services     : 9.570
  B2B Services       : 2.091
  Total Parcels      : 12.603
  B2B Parcels        : 3.160
  B2B Service Ratio  : 21,85%
  B2B Parcel Ratio   : 25,07%
  Total Weight       : 65276,83
  Total B2B Weight   : 29479,04
  Average Weight     : 5,18
  Average B2B Weight : 9,33

Provider: gls
  Total Services     : 12.194
  B2B Services       : 2.508
  Total Parcels      : 17.681
  B2B Parcels        : 4.550
  B2B Service Ratio  : 20,57%
  B2B Parcel Ratio   : 25,73%
  Total Weight       : 93118,88
  Total B2B Weight   : 42278,45
  Average Weight     : 5,27
  Average B2B Weight : 9,29

=== Total Statistics ===
Total Services     : 106.029
Total B2B Services : 19.189
Total Parcels      : 197.985
Total B2B Parcels  : 47.252
Total Weight       : 1020714,45
Total B2B Weight   : 440237,52
Average Weight     : 5,16
Average B2B Weight : 9,32

2024-07-02 17:36:27.738 [main] INFO  hagrid.demand.CarrierGenerator - Validation passed: All carrier services match the original deliveries summary.
2024-07-02 17:36:27.739 [main] INFO  hagrid.demand.CarrierGenerator - Total deliveries match: 106028.
2024-07-02 17:36:27.739 [main] INFO  hagrid.demand.CarrierGenerator - Total parcels match: 197985.
2024-07-02 17:36:27.739 [main] INFO  hagrid.demand.CarrierGenerator - Total B2B deliveries match: 19188.
2024-07-02 17:36:27.739 [main] INFO  hagrid.demand.CarrierGenerator - Total B2B parcels match: 47252.
2024-07-02 17:36:27.740 [main] INFO  hagrid.demand.CarrierGenerator - Validation of carrier completed.
2024-07-02 17:36:27.740 [main] INFO  hagrid.demand.CarrierGenerator - Starting validation of supply demand...
2024-07-02 17:36:27.755 [main] INFO  hagrid.demand.CarrierGenerator - Hub ID: dhl_hannover_sued, Assigned Supply Demand: 12027
2024-07-02 17:36:27.755 [main] INFO  hagrid.demand.CarrierGenerator - Hub ID: dp/dhl_burgdorf, Assigned Supply Demand: 3961
2024-07-02 17:36:27.755 [main] INFO  hagrid.demand.CarrierGenerator - Hub ID: dhl_hannover_gueterbahnhof, Assigned Supply Demand: 26150
2024-07-02 17:36:27.755 [main] INFO  hagrid.demand.CarrierGenerator - Hub ID: dpd_lehrte, Assigned Supply Demand: 22122
2024-07-02 17:36:27.757 [main] INFO  hagrid.demand.CarrierGenerator - Hub ID: dhl_pattensen, Assigned Supply Demand: 4634
2024-07-02 17:36:27.757 [main] INFO  hagrid.demand.CarrierGenerator - Hub ID: gls_laatzen, Assigned Supply Demand: 17681
2024-07-02 17:36:27.758 [main] INFO  hagrid.demand.CarrierGenerator - Hub ID: dp/dhl_springe, Assigned Supply Demand: 2086
2024-07-02 17:36:27.758 [main] INFO  hagrid.demand.CarrierGenerator - Hub ID: dp/dhl_garbsen, Assigned Supply Demand: 3470
2024-07-02 17:36:27.758 [main] INFO  hagrid.demand.CarrierGenerator - Hub ID: dp/dhl_seelze, Assigned Supply Demand: 3162
2024-07-02 17:36:27.759 [main] INFO  hagrid.demand.CarrierGenerator - Hub ID: hermes_langenhagen, Assigned Supply Demand: 12603
2024-07-02 17:36:27.759 [main] INFO  hagrid.demand.CarrierGenerator - Hub ID: dp/dhl_wunstorf, Assigned Supply Demand: 4299
2024-07-02 17:36:27.759 [main] INFO  hagrid.demand.CarrierGenerator - Hub ID: dp/dhl_wedemark, Assigned Supply Demand: 7677
2024-07-02 17:36:27.759 [main] INFO  hagrid.demand.CarrierGenerator - Hub ID: dp/dhl_uetze, Assigned Supply Demand: 1468
2024-07-02 17:36:27.760 [main] INFO  hagrid.demand.CarrierGenerator - Hub ID: dp/dhl_lehrte, Assigned Supply Demand: 3157
2024-07-02 17:36:27.762 [main] INFO  hagrid.demand.CarrierGenerator - Hub ID: dp/dhl_neustadt_am_ruebenberge, Assigned Supply Demand: 3191
2024-07-02 17:36:27.762 [main] INFO  hagrid.demand.CarrierGenerator - Hub ID: dhl_hannover_anderten, Assigned Supply Demand: 7838
2024-07-02 17:36:27.763 [main] INFO  hagrid.demand.CarrierGenerator - Hub ID: amazon_garbsen, Assigned Supply Demand: 18401
2024-07-02 17:36:27.763 [main] INFO  hagrid.demand.CarrierGenerator - Hub ID: fedex_hannover, Assigned Supply Demand: 13225
2024-07-02 17:36:27.764 [main] INFO  hagrid.demand.CarrierGenerator - Hub ID: ups_hannover, Assigned Supply Demand: 26491
2024-07-02 17:36:27.764 [main] INFO  hagrid.demand.CarrierGenerator - Hub ID: dp/dhl_wennigsen, Assigned Supply Demand: 3487
2024-07-02 17:36:27.765 [main] INFO  hagrid.demand.CarrierGenerator - Hub ID: dp/dhl_sehnde, Assigned Supply Demand: 855
2024-07-02 17:36:27.765 [main] INFO  hagrid.demand.CarrierGenerator - Total Parcels: 197985, Total Assigned Supply Demand: 197985
2024-07-02 17:36:27.766 [main] INFO  hagrid.demand.CarrierGenerator - Validation successful: Total parcels match total assigned supply demand.
2024-07-02 17:36:27.766 [main] INFO  hagrid.utils.general.HAGRIDUtils - Starting to check and log carrier attributes
2024-07-02 17:36:28.320 [main] INFO  hagrid.demand.CarrierGenerator - Carrier generation completed.
2024-07-02 17:36:28.324 [main] INFO  org.matsim.freight.carriers.CarrierPlanXmlWriterV2_1 - write carrier plans
2024-07-02 17:36:28.330 [main] WARN  org.matsim.utils.objectattributes.ObjectAttributesConverter - No AttributeConverter found for class hagrid.utils.demand.Hub. Not all attribute values can be converted.
2024-07-02 17:36:30.123 [main] INFO  org.matsim.freight.carriers.CarrierPlanXmlWriterV2_1 - done
2024-07-02 17:36:30.124 [main] INFO  hagrid.App - Carrier generation completed.
2024-07-02 17:36:30.124 [main] INFO  hagrid.App - Initializing SupplyCarrierGenerator...
2024-07-02 17:36:30.134 [main] INFO  hagrid.App - Starting supply carrier generation based on generated carriers...
2024-07-02 17:36:30.134 [main] INFO  hagrid.demand.SupplyCarrierGenerator - Starting supply carrier generation...
2024-07-02 17:36:30.135 [main] INFO  hagrid.demand.SupplyCarrierGenerator - Retrieved 389 carriers from the scenario.
2024-07-02 17:36:30.135 [main] INFO  hagrid.demand.SupplyCarrierGenerator - Retrieved 21 hubs, 12 vehicle types, and network from the scenario.
2024-07-02 17:36:30.144 [main] INFO  hagrid.demand.SupplyCarrierGenerator - Creating Hub Supply Carrier
2024-07-02 17:36:30.150 [main] INFO  hagrid.demand.SupplyCarrierGenerator - Supply Carrier ID = supply_from_dhl_anderten, Assigned Demand = 85622
2024-07-02 17:36:30.151 [main] INFO  hagrid.demand.SupplyCarrierGenerator - Supply Carrier ID = supply_to_dhl_anderten, Assigned Demand = 101298
2024-07-02 17:36:30.151 [main] INFO  hagrid.demand.SupplyCarrierGenerator - Supply Carrier ID = supply_dpd_lehrte, Assigned Demand = 44244
2024-07-02 17:36:30.151 [main] INFO  hagrid.demand.SupplyCarrierGenerator - Supply Carrier ID = supply_gls_laatzen, Assigned Demand = 35362
2024-07-02 17:36:30.151 [main] INFO  hagrid.demand.SupplyCarrierGenerator - Supply Carrier ID = supply_hermes_langenhagen, Assigned Demand = 25206
2024-07-02 17:36:30.153 [main] INFO  hagrid.demand.SupplyCarrierGenerator - Supply Carrier ID = supply_amazon_garbsen, Assigned Demand = 36802
2024-07-02 17:36:30.153 [main] INFO  hagrid.demand.SupplyCarrierGenerator - Supply Carrier ID = supply_fedex_hannover, Assigned Demand = 26450
2024-07-02 17:36:30.153 [main] INFO  hagrid.demand.SupplyCarrierGenerator - Supply Carrier ID = supply_ups_hannover, Assigned Demand = 52982
2024-07-02 17:36:30.153 [main] INFO  hagrid.demand.SupplyCarrierGenerator - Supply Carrier ID = supply_dp_dhl_burgdorf, Assigned Demand = 7922
2024-07-02 17:36:30.154 [main] INFO  hagrid.demand.SupplyCarrierGenerator - Supply Carrier ID = supply_dp_dhl_springe, Assigned Demand = 4172
2024-07-02 17:36:30.154 [main] INFO  hagrid.demand.SupplyCarrierGenerator - Supply Carrier ID = supply_dp_dhl_garbsen, Assigned Demand = 6940
2024-07-02 17:36:30.155 [main] INFO  hagrid.demand.SupplyCarrierGenerator - Supply Carrier ID = supply_dp_dhl_seelze, Assigned Demand = 6324
2024-07-02 17:36:30.155 [main] INFO  hagrid.demand.SupplyCarrierGenerator - Supply Carrier ID = supply_dp_dhl_wunstorf, Assigned Demand = 8598
2024-07-02 17:36:30.156 [main] INFO  hagrid.demand.SupplyCarrierGenerator - Supply Carrier ID = supply_dp_dhl_wedemark, Assigned Demand = 15354
2024-07-02 17:36:30.156 [main] INFO  hagrid.demand.SupplyCarrierGenerator - Supply Carrier ID = supply_dp_dhl_uetze, Assigned Demand = 2936
2024-07-02 17:36:30.157 [main] INFO  hagrid.demand.SupplyCarrierGenerator - Supply Carrier ID = supply_dp_dhl_lehrte, Assigned Demand = 6314
2024-07-02 17:36:30.157 [main] INFO  hagrid.demand.SupplyCarrierGenerator - Supply Carrier ID = supply_dp_dhl_neustadt_am_ruebenberge, Assigned Demand = 6382
2024-07-02 17:36:30.158 [main] INFO  hagrid.demand.SupplyCarrierGenerator - Supply Carrier ID = supply_dp_dhl_wennigsen, Assigned Demand = 6974
2024-07-02 17:36:30.158 [main] INFO  hagrid.demand.SupplyCarrierGenerator - Supply Carrier ID = supply_dp_dhl_sehnde, Assigned Demand = 1710
2024-07-02 17:36:30.158 [main] INFO  hagrid.demand.SupplyCarrierGenerator - Split Supply Services in different Starting Points on the Map
2024-07-02 17:36:30.159 [main] INFO  hagrid.demand.SupplyCarrierGenerator - Split Carrier ID = supply_to_dhl_anderten_east, Direction = east, Demand = 27298
2024-07-02 17:36:30.161 [main] INFO  hagrid.demand.SupplyCarrierGenerator - Split Carrier ID = supply_to_dhl_anderten_south, Direction = south, Demand = 14000
2024-07-02 17:36:30.162 [main] INFO  hagrid.demand.SupplyCarrierGenerator - Split Carrier ID = supply_to_dhl_anderten_north, Direction = north, Demand = 26000
2024-07-02 17:36:30.164 [main] INFO  hagrid.demand.SupplyCarrierGenerator - Split Carrier ID = supply_to_dhl_anderten_west, Direction = west, Demand = 34000
2024-07-02 17:36:30.164 [main] INFO  hagrid.demand.SupplyCarrierGenerator - Split Carrier ID = supply_dpd_lehrte_east, Direction = east, Demand = 14000
2024-07-02 17:36:30.165 [main] INFO  hagrid.demand.SupplyCarrierGenerator - Split Carrier ID = supply_dpd_lehrte_south, Direction = south, Demand = 14244
2024-07-02 17:36:30.165 [main] INFO  hagrid.demand.SupplyCarrierGenerator - Split Carrier ID = supply_dpd_lehrte_north, Direction = north, Demand = 8000
2024-07-02 17:36:30.166 [main] INFO  hagrid.demand.SupplyCarrierGenerator - Split Carrier ID = supply_dpd_lehrte_west, Direction = west, Demand = 8000
2024-07-02 17:36:30.166 [main] INFO  hagrid.demand.SupplyCarrierGenerator - Split Carrier ID = supply_gls_laatzen_east, Direction = east, Demand = 8000
2024-07-02 17:36:30.167 [main] INFO  hagrid.demand.SupplyCarrierGenerator - Split Carrier ID = supply_gls_laatzen_south, Direction = south, Demand = 12000
2024-07-02 17:36:30.168 [main] INFO  hagrid.demand.SupplyCarrierGenerator - Split Carrier ID = supply_gls_laatzen_north, Direction = north, Demand = 6000
2024-07-02 17:36:30.168 [main] INFO  hagrid.demand.SupplyCarrierGenerator - Split Carrier ID = supply_gls_laatzen_west, Direction = west, Demand = 9362
2024-07-02 17:36:30.169 [main] INFO  hagrid.demand.SupplyCarrierGenerator - Split Carrier ID = supply_hermes_langenhagen_east, Direction = east, Demand = 6000
2024-07-02 17:36:30.169 [main] INFO  hagrid.demand.SupplyCarrierGenerator - Split Carrier ID = supply_hermes_langenhagen_south, Direction = south, Demand = 6000
2024-07-02 17:36:30.169 [main] INFO  hagrid.demand.SupplyCarrierGenerator - Split Carrier ID = supply_hermes_langenhagen_north, Direction = north, Demand = 7206
2024-07-02 17:36:30.170 [main] INFO  hagrid.demand.SupplyCarrierGenerator - Split Carrier ID = supply_hermes_langenhagen_west, Direction = west, Demand = 6000
2024-07-02 17:36:30.170 [main] INFO  hagrid.demand.SupplyCarrierGenerator - Split Carrier ID = supply_amazon_garbsen_east, Direction = east, Demand = 8000
2024-07-02 17:36:30.171 [main] INFO  hagrid.demand.SupplyCarrierGenerator - Split Carrier ID = supply_amazon_garbsen_south, Direction = south, Demand = 12802
2024-07-02 17:36:30.171 [main] INFO  hagrid.demand.SupplyCarrierGenerator - Split Carrier ID = supply_amazon_garbsen_north, Direction = north, Demand = 8000
2024-07-02 17:36:30.171 [main] INFO  hagrid.demand.SupplyCarrierGenerator - Split Carrier ID = supply_amazon_garbsen_west, Direction = west, Demand = 8000
2024-07-02 17:36:30.172 [main] INFO  hagrid.demand.SupplyCarrierGenerator - Split Carrier ID = supply_fedex_hannover_south, Direction = south, Demand = 6450
2024-07-02 17:36:30.172 [main] INFO  hagrid.demand.SupplyCarrierGenerator - Split Carrier ID = supply_fedex_hannover_north, Direction = north, Demand = 16000
2024-07-02 17:36:30.173 [main] INFO  hagrid.demand.SupplyCarrierGenerator - Split Carrier ID = supply_fedex_hannover_west, Direction = west, Demand = 4000
2024-07-02 17:36:30.174 [main] INFO  hagrid.demand.SupplyCarrierGenerator - Split Carrier ID = supply_ups_hannover_east, Direction = east, Demand = 18982
2024-07-02 17:36:30.174 [main] INFO  hagrid.demand.SupplyCarrierGenerator - Split Carrier ID = supply_ups_hannover_south, Direction = south, Demand = 4000
2024-07-02 17:36:30.175 [main] INFO  hagrid.demand.SupplyCarrierGenerator - Split Carrier ID = supply_ups_hannover_north, Direction = north, Demand = 16000
2024-07-02 17:36:30.175 [main] INFO  hagrid.demand.SupplyCarrierGenerator - Split Carrier ID = supply_ups_hannover_west, Direction = west, Demand = 14000
2024-07-02 17:36:30.176 [main] INFO  hagrid.demand.SupplyCarrierGenerator - Split Carrier ID = supply_dp_dhl_burgdorf_east, Direction = east, Demand = 2000
2024-07-02 17:36:30.176 [main] INFO  hagrid.demand.SupplyCarrierGenerator - Split Carrier ID = supply_dp_dhl_burgdorf_north, Direction = north, Demand = 1922
2024-07-02 17:36:30.177 [main] INFO  hagrid.demand.SupplyCarrierGenerator - Split Carrier ID = supply_dp_dhl_burgdorf_west, Direction = west, Demand = 4000
2024-07-02 17:36:30.178 [main] INFO  hagrid.demand.SupplyCarrierGenerator - Split Carrier ID = supply_dp_dhl_springe_south, Direction = south, Demand = 2000
2024-07-02 17:36:30.179 [main] INFO  hagrid.demand.SupplyCarrierGenerator - Split Carrier ID = supply_dp_dhl_springe_west, Direction = west, Demand = 2172
2024-07-02 17:36:30.180 [main] INFO  hagrid.demand.SupplyCarrierGenerator - Split Carrier ID = supply_dp_dhl_garbsen_east, Direction = east, Demand = 2000
2024-07-02 17:36:30.181 [main] INFO  hagrid.demand.SupplyCarrierGenerator - Split Carrier ID = supply_dp_dhl_garbsen_south, Direction = south, Demand = 2940
2024-07-02 17:36:30.181 [main] INFO  hagrid.demand.SupplyCarrierGenerator - Split Carrier ID = supply_dp_dhl_garbsen_west, Direction = west, Demand = 2000
2024-07-02 17:36:30.181 [main] INFO  hagrid.demand.SupplyCarrierGenerator - Split Carrier ID = supply_dp_dhl_seelze_south, Direction = south, Demand = 4000
2024-07-02 17:36:30.182 [main] INFO  hagrid.demand.SupplyCarrierGenerator - Split Carrier ID = supply_dp_dhl_seelze_north, Direction = north, Demand = 324
2024-07-02 17:36:30.182 [main] INFO  hagrid.demand.SupplyCarrierGenerator - Split Carrier ID = supply_dp_dhl_seelze_west, Direction = west, Demand = 2000
2024-07-02 17:36:30.183 [main] INFO  hagrid.demand.SupplyCarrierGenerator - Split Carrier ID = supply_dp_dhl_wunstorf_north, Direction = north, Demand = 6598
2024-07-02 17:36:30.183 [main] INFO  hagrid.demand.SupplyCarrierGenerator - Split Carrier ID = supply_dp_dhl_wunstorf_west, Direction = west, Demand = 2000
2024-07-02 17:36:30.184 [main] INFO  hagrid.demand.SupplyCarrierGenerator - Split Carrier ID = supply_dp_dhl_wedemark_east, Direction = east, Demand = 2000
2024-07-02 17:36:30.184 [main] INFO  hagrid.demand.SupplyCarrierGenerator - Split Carrier ID = supply_dp_dhl_wedemark_south, Direction = south, Demand = 2000
2024-07-02 17:36:30.186 [main] INFO  hagrid.demand.SupplyCarrierGenerator - Split Carrier ID = supply_dp_dhl_wedemark_north, Direction = north, Demand = 7354
2024-07-02 17:36:30.186 [main] INFO  hagrid.demand.SupplyCarrierGenerator - Split Carrier ID = supply_dp_dhl_wedemark_west, Direction = west, Demand = 4000
2024-07-02 17:36:30.186 [main] INFO  hagrid.demand.SupplyCarrierGenerator - Split Carrier ID = supply_dp_dhl_uetze_north, Direction = north, Demand = 936
2024-07-02 17:36:30.187 [main] INFO  hagrid.demand.SupplyCarrierGenerator - Split Carrier ID = supply_dp_dhl_uetze_west, Direction = west, Demand = 2000
2024-07-02 17:36:30.187 [main] INFO  hagrid.demand.SupplyCarrierGenerator - Split Carrier ID = supply_dp_dhl_lehrte_east, Direction = east, Demand = 2314
2024-07-02 17:36:30.187 [main] INFO  hagrid.demand.SupplyCarrierGenerator - Split Carrier ID = supply_dp_dhl_lehrte_north, Direction = north, Demand = 4000
2024-07-02 17:36:30.189 [main] INFO  hagrid.demand.SupplyCarrierGenerator - Split Carrier ID = supply_dp_dhl_neustadt_am_ruebenberge_east, Direction = east, Demand = 2000
2024-07-02 17:36:30.189 [main] INFO  hagrid.demand.SupplyCarrierGenerator - Split Carrier ID = supply_dp_dhl_neustadt_am_ruebenberge_north, Direction = north, Demand = 4382
2024-07-02 17:36:30.190 [main] INFO  hagrid.demand.SupplyCarrierGenerator - Split Carrier ID = supply_dp_dhl_wennigsen_east, Direction = east, Demand = 2974
2024-07-02 17:36:30.190 [main] INFO  hagrid.demand.SupplyCarrierGenerator - Split Carrier ID = supply_dp_dhl_wennigsen_south, Direction = south, Demand = 4000
2024-07-02 17:36:30.191 [main] INFO  hagrid.demand.SupplyCarrierGenerator - Split Carrier ID = supply_dp_dhl_sehnde_south, Direction = south, Demand = 1710
2024-07-02 17:36:30.192 [main] INFO  hagrid.demand.SupplyCarrierGenerator - Starting validation of direct supply carriers...
2024-07-02 17:36:30.194 [main] INFO  hagrid.demand.SupplyCarrierGenerator - Hub dpd_lehrte: Assigned Demand = 44244, Carrier Demand = 44244
2024-07-02 17:36:30.195 [main] INFO  hagrid.demand.SupplyCarrierGenerator - Hub gls_laatzen: Assigned Demand = 35362, Carrier Demand = 35362
2024-07-02 17:36:30.195 [main] INFO  hagrid.demand.SupplyCarrierGenerator - Hub hermes_langenhagen: Assigned Demand = 25206, Carrier Demand = 25206
2024-07-02 17:36:30.196 [main] INFO  hagrid.demand.SupplyCarrierGenerator - Hub amazon_garbsen: Assigned Demand = 36802, Carrier Demand = 36802
2024-07-02 17:36:30.197 [main] INFO  hagrid.demand.SupplyCarrierGenerator - Hub fedex_hannover: Assigned Demand = 26450, Carrier Demand = 26450
2024-07-02 17:36:30.197 [main] INFO  hagrid.demand.SupplyCarrierGenerator - Hub ups_hannover: Assigned Demand = 52982, Carrier Demand = 52982
2024-07-02 17:36:30.198 [main] INFO  hagrid.demand.SupplyCarrierGenerator - Validation successful: Total assigned direct supply demand matches total direct supply carrier demand.
2024-07-02 17:36:30.201 [main] INFO  hagrid.demand.SupplyCarrierGenerator - Validation successful: Total DHL assigned supply demand matches total carrier demand from and to Anderten.
2024-07-02 17:36:30.201 [main] INFO  hagrid.demand.SupplyCarrierGenerator - Total DHL provider assigned supply demand: 101298
2024-07-02 17:36:30.202 [main] INFO  hagrid.demand.SupplyCarrierGenerator - Carrier demand to Anderten: 101298
2024-07-02 17:36:30.202 [main] INFO  hagrid.demand.SupplyCarrierGenerator - Total DHL assigned supply demand excluding Anderten: 85622
2024-07-02 17:36:30.202 [main] INFO  hagrid.demand.SupplyCarrierGenerator - Carrier demand from Anderten: 85622
2024-07-02 17:36:30.205 [main] INFO  hagrid.demand.SupplyCarrierGenerator - Validation successful: Total demand for split carriers of supply_to_dhl_anderten matches original demand. Original Demand: 101298, Split Demand: 101298
2024-07-02 17:36:30.206 [main] INFO  hagrid.demand.SupplyCarrierGenerator - Validation successful: Total demand for split carriers of supply_dpd_lehrte matches original demand. Original Demand: 44244, Split Demand: 44244
2024-07-02 17:36:30.206 [main] INFO  hagrid.demand.SupplyCarrierGenerator - Validation successful: Total demand for split carriers of supply_gls_laatzen matches original demand. Original Demand: 35362, Split Demand: 35362
2024-07-02 17:36:30.207 [main] INFO  hagrid.demand.SupplyCarrierGenerator - Validation successful: Total demand for split carriers of supply_hermes_langenhagen matches original demand. Original Demand: 25206, Split Demand: 25206
2024-07-02 17:36:30.208 [main] INFO  hagrid.demand.SupplyCarrierGenerator - Validation successful: Total demand for split carriers of supply_amazon_garbsen matches original demand. Original Demand: 36802, Split Demand: 36802
[...]
2024-07-02 18:17:03.125 [main] INFO  hagrid.demand.CarrierGenerator - Total Parcels: 197985, Total Assigned Supply Demand: 197985
2024-07-02 18:17:03.125 [main] INFO  hagrid.demand.CarrierGenerator - Validation successful: Total parcels match total assigned supply demand.
2024-07-02 18:17:03.125 [main] INFO  hagrid.utils.general.HAGRIDUtils - Starting to check and log carrier attributes
2024-07-02 18:17:03.619 [main] INFO  hagrid.demand.CarrierGenerator - Carrier generation completed.
2024-07-02 18:17:03.624 [main] INFO  org.matsim.freight.carriers.CarrierPlanXmlWriterV2_1 - write carrier plans
2024-07-02 18:17:03.640 [main] WARN  org.matsim.utils.objectattributes.ObjectAttributesConverter - No AttributeConverter found for class hagrid.utils.demand.Hub. Not all attribute values can be converted.
2024-07-02 18:17:05.233 [main] INFO  org.matsim.freight.carriers.CarrierPlanXmlWriterV2_1 - done
2024-07-02 18:17:05.233 [main] INFO  hagrid.App - Carrier generation completed.
2024-07-02 18:17:05.234 [main] INFO  hagrid.App - Initializing SupplyCarrierGenerator...
2024-07-02 18:17:05.241 [main] INFO  hagrid.App - Starting supply carrier generation based on generated carriers...
2024-07-02 18:17:05.241 [main] INFO  hagrid.demand.SupplyCarrierGenerator - Starting supply carrier generation...
2024-07-02 18:17:05.241 [main] INFO  hagrid.demand.SupplyCarrierGenerator - Retrieved 389 carriers from the scenario.
2024-07-02 18:17:05.242 [main] INFO  hagrid.demand.SupplyCarrierGenerator - Retrieved 21 hubs, 12 vehicle types, and network from the scenario.
2024-07-02 18:17:05.252 [main] INFO  hagrid.demand.SupplyCarrierGenerator - Creating Hub Supply Carrier
2024-07-02 18:17:05.255 [main] INFO  hagrid.demand.SupplyCarrierGenerator - Supply Carrier ID = supply_from_dhl_anderten, Assigned Demand = 82904
2024-07-02 18:17:05.256 [main] INFO  hagrid.demand.SupplyCarrierGenerator - Supply Carrier ID = supply_to_dhl_anderten, Assigned Demand = 98580
2024-07-02 18:17:05.256 [main] INFO  hagrid.demand.SupplyCarrierGenerator - Supply Carrier ID = supply_dpd_lehrte, Assigned Demand = 44244
2024-07-02 18:17:05.257 [main] INFO  hagrid.demand.SupplyCarrierGenerator - Supply Carrier ID = supply_gls_laatzen, Assigned Demand = 35362
2024-07-02 18:17:05.257 [main] INFO  hagrid.demand.SupplyCarrierGenerator - Supply Carrier ID = supply_hermes_langenhagen, Assigned Demand = 25206
2024-07-02 18:17:05.257 [main] INFO  hagrid.demand.SupplyCarrierGenerator - Supply Carrier ID = supply_amazon_garbsen, Assigned Demand = 36802
2024-07-02 18:17:05.259 [main] INFO  hagrid.demand.SupplyCarrierGenerator - Supply Carrier ID = supply_fedex_hannover, Assigned Demand = 26450
2024-07-02 18:17:05.259 [main] INFO  hagrid.demand.SupplyCarrierGenerator - Supply Carrier ID = supply_ups_hannover, Assigned Demand = 52982
2024-07-02 18:17:05.259 [main] INFO  hagrid.demand.SupplyCarrierGenerator - Supply Carrier ID = supply_dp_dhl_burgdorf, Assigned Demand = 7892
2024-07-02 18:17:05.260 [main] INFO  hagrid.demand.SupplyCarrierGenerator - Supply Carrier ID = supply_dp_dhl_springe, Assigned Demand = 4172
2024-07-02 18:17:05.260 [main] INFO  hagrid.demand.SupplyCarrierGenerator - Supply Carrier ID = supply_dp_dhl_garbsen, Assigned Demand = 6940
2024-07-02 18:17:05.261 [main] INFO  hagrid.demand.SupplyCarrierGenerator - Supply Carrier ID = supply_dp_dhl_seelze, Assigned Demand = 9042
2024-07-02 18:17:05.261 [main] INFO  hagrid.demand.SupplyCarrierGenerator - Supply Carrier ID = supply_dp_dhl_wunstorf, Assigned Demand = 8598
2024-07-02 18:17:05.261 [main] INFO  hagrid.demand.SupplyCarrierGenerator - Supply Carrier ID = supply_dp_dhl_wedemark, Assigned Demand = 15384
2024-07-02 18:17:05.261 [main] INFO  hagrid.demand.SupplyCarrierGenerator - Supply Carrier ID = supply_dp_dhl_uetze, Assigned Demand = 2936
2024-07-02 18:17:05.262 [main] INFO  hagrid.demand.SupplyCarrierGenerator - Supply Carrier ID = supply_dp_dhl_lehrte, Assigned Demand = 6314
2024-07-02 18:17:05.262 [main] INFO  hagrid.demand.SupplyCarrierGenerator - Supply Carrier ID = supply_dp_dhl_neustadt_am_ruebenberge, Assigned Demand = 6382
2024-07-02 18:17:05.262 [main] INFO  hagrid.demand.SupplyCarrierGenerator - Supply Carrier ID = supply_dp_dhl_wennigsen, Assigned Demand = 6974
2024-07-02 18:17:05.263 [main] INFO  hagrid.demand.SupplyCarrierGenerator - Supply Carrier ID = supply_dp_dhl_sehnde, Assigned Demand = 1710
2024-07-02 18:17:05.263 [main] INFO  hagrid.demand.SupplyCarrierGenerator - Split Supply Services in different Starting Points on the Map
2024-07-02 18:17:05.264 [main] INFO  hagrid.demand.SupplyCarrierGenerator - Split Carrier ID = supply_to_dhl_anderten_east, Direction = east, Demand = 26000
2024-07-02 18:17:05.266 [main] INFO  hagrid.demand.SupplyCarrierGenerator - Split Carrier ID = supply_to_dhl_anderten_south, Direction = south, Demand = 14000
2024-07-02 18:17:05.266 [main] INFO  hagrid.demand.SupplyCarrierGenerator - Split Carrier ID = supply_to_dhl_anderten_north, Direction = north, Demand = 38580
2024-07-02 18:17:05.266 [main] INFO  hagrid.demand.SupplyCarrierGenerator - Split Carrier ID = supply_to_dhl_anderten_west, Direction = west, Demand = 20000
2024-07-02 18:17:05.267 [main] INFO  hagrid.demand.SupplyCarrierGenerator - Split Carrier ID = supply_dpd_lehrte_east, Direction = east, Demand = 8000
2024-07-02 18:17:05.268 [main] INFO  hagrid.demand.SupplyCarrierGenerator - Split Carrier ID = supply_dpd_lehrte_south, Direction = south, Demand = 14000
2024-07-02 18:17:05.268 [main] INFO  hagrid.demand.SupplyCarrierGenerator - Split Carrier ID = supply_dpd_lehrte_north, Direction = north, Demand = 10000
2024-07-02 18:17:05.269 [main] INFO  hagrid.demand.SupplyCarrierGenerator - Split Carrier ID = supply_dpd_lehrte_west, Direction = west, Demand = 12244
2024-07-02 18:17:05.269 [main] INFO  hagrid.demand.SupplyCarrierGenerator - Split Carrier ID = supply_gls_laatzen_east, Direction = east, Demand = 2000
2024-07-02 18:17:05.270 [main] INFO  hagrid.demand.SupplyCarrierGenerator - Split Carrier ID = supply_gls_laatzen_south, Direction = south, Demand = 10000
2024-07-02 18:17:05.270 [main] INFO  hagrid.demand.SupplyCarrierGenerator - Split Carrier ID = supply_gls_laatzen_north, Direction = north, Demand = 15362
2024-07-02 18:17:05.270 [main] INFO  hagrid.demand.SupplyCarrierGenerator - Split Carrier ID = supply_gls_laatzen_west, Direction = west, Demand = 8000
2024-07-02 18:17:05.271 [main] INFO  hagrid.demand.SupplyCarrierGenerator - Split Carrier ID = supply_hermes_langenhagen_east, Direction = east, Demand = 8000
2024-07-02 18:17:05.271 [main] INFO  hagrid.demand.SupplyCarrierGenerator - Split Carrier ID = supply_hermes_langenhagen_south, Direction = south, Demand = 2000
2024-07-02 18:17:05.273 [main] INFO  hagrid.demand.SupplyCarrierGenerator - Split Carrier ID = supply_hermes_langenhagen_north, Direction = north, Demand = 12000
2024-07-02 18:17:05.273 [main] INFO  hagrid.demand.SupplyCarrierGenerator - Split Carrier ID = supply_hermes_langenhagen_west, Direction = west, Demand = 3206
2024-07-02 18:17:05.274 [main] INFO  hagrid.demand.SupplyCarrierGenerator - Split Carrier ID = supply_amazon_garbsen_east, Direction = east, Demand = 4000
2024-07-02 18:17:05.274 [main] INFO  hagrid.demand.SupplyCarrierGenerator - Split Carrier ID = supply_amazon_garbsen_south, Direction = south, Demand = 12000
2024-07-02 18:17:05.275 [main] INFO  hagrid.demand.SupplyCarrierGenerator - Split Carrier ID = supply_amazon_garbsen_north, Direction = north, Demand = 8802
2024-07-02 18:17:05.275 [main] INFO  hagrid.demand.SupplyCarrierGenerator - Split Carrier ID = supply_amazon_garbsen_west, Direction = west, Demand = 12000
2024-07-02 18:17:05.276 [main] INFO  hagrid.demand.SupplyCarrierGenerator - Split Carrier ID = supply_fedex_hannover_east, Direction = east, Demand = 4000
2024-07-02 18:17:05.276 [main] INFO  hagrid.demand.SupplyCarrierGenerator - Split Carrier ID = supply_fedex_hannover_south, Direction = south, Demand = 4000
2024-07-02 18:17:05.276 [main] INFO  hagrid.demand.SupplyCarrierGenerator - Split Carrier ID = supply_fedex_hannover_north, Direction = north, Demand = 12450
2024-07-02 18:17:05.277 [main] INFO  hagrid.demand.SupplyCarrierGenerator - Split Carrier ID = supply_fedex_hannover_west, Direction = west, Demand = 6000
2024-07-02 18:17:05.277 [main] INFO  hagrid.demand.SupplyCarrierGenerator - Split Carrier ID = supply_ups_hannover_east, Direction = east, Demand = 8000
2024-07-02 18:17:05.277 [main] INFO  hagrid.demand.SupplyCarrierGenerator - Split Carrier ID = supply_ups_hannover_south, Direction = south, Demand = 14000
2024-07-02 18:17:05.278 [main] INFO  hagrid.demand.SupplyCarrierGenerator - Split Carrier ID = supply_ups_hannover_north, Direction = north, Demand = 18982
2024-07-02 18:17:05.278 [main] INFO  hagrid.demand.SupplyCarrierGenerator - Split Carrier ID = supply_ups_hannover_west, Direction = west, Demand = 12000
2024-07-02 18:17:05.279 [main] INFO  hagrid.demand.SupplyCarrierGenerator - Split Carrier ID = supply_dp_dhl_burgdorf_south, Direction = south, Demand = 5892
2024-07-02 18:17:05.279 [main] INFO  hagrid.demand.SupplyCarrierGenerator - Split Carrier ID = supply_dp_dhl_burgdorf_west, Direction = west, Demand = 2000
2024-07-02 18:17:05.279 [main] INFO  hagrid.demand.SupplyCarrierGenerator - Split Carrier ID = supply_dp_dhl_springe_south, Direction = south, Demand = 172
2024-07-02 18:17:05.280 [main] INFO  hagrid.demand.SupplyCarrierGenerator - Split Carrier ID = supply_dp_dhl_springe_north, Direction = north, Demand = 2000
2024-07-02 18:17:05.280 [main] INFO  hagrid.demand.SupplyCarrierGenerator - Split Carrier ID = supply_dp_dhl_springe_west, Direction = west, Demand = 2000
2024-07-02 18:17:05.280 [main] INFO  hagrid.demand.SupplyCarrierGenerator - Split Carrier ID = supply_dp_dhl_garbsen_south, Direction = south, Demand = 4000
2024-07-02 18:17:05.282 [main] INFO  hagrid.demand.SupplyCarrierGenerator - Split Carrier ID = supply_dp_dhl_garbsen_north, Direction = north, Demand = 940
2024-07-02 18:17:05.282 [main] INFO  hagrid.demand.SupplyCarrierGenerator - Split Carrier ID = supply_dp_dhl_garbsen_west, Direction = west, Demand = 2000
2024-07-02 18:17:05.282 [main] INFO  hagrid.demand.SupplyCarrierGenerator - Split Carrier ID = supply_dp_dhl_seelze_east, Direction = east, Demand = 2000
2024-07-02 18:17:05.283 [main] INFO  hagrid.demand.SupplyCarrierGenerator - Split Carrier ID = supply_dp_dhl_seelze_south, Direction = south, Demand = 4000
2024-07-02 18:17:05.283 [main] INFO  hagrid.demand.SupplyCarrierGenerator - Split Carrier ID = supply_dp_dhl_seelze_north, Direction = north, Demand = 2000
2024-07-02 18:17:05.283 [main] INFO  hagrid.demand.SupplyCarrierGenerator - Split Carrier ID = supply_dp_dhl_seelze_west, Direction = west, Demand = 1042
2024-07-02 18:17:05.284 [main] INFO  hagrid.demand.SupplyCarrierGenerator - Split Carrier ID = supply_dp_dhl_wunstorf_east, Direction = east, Demand = 4000
2024-07-02 18:17:05.284 [main] INFO  hagrid.demand.SupplyCarrierGenerator - Split Carrier ID = supply_dp_dhl_wunstorf_south, Direction = south, Demand = 4000
2024-07-02 18:17:05.285 [main] INFO  hagrid.demand.SupplyCarrierGenerator - Split Carrier ID = supply_dp_dhl_wunstorf_north, Direction = north, Demand = 598
2024-07-02 18:17:05.285 [main] INFO  hagrid.demand.SupplyCarrierGenerator - Split Carrier ID = supply_dp_dhl_wedemark_south, Direction = south, Demand = 4000
2024-07-02 18:17:05.286 [main] INFO  hagrid.demand.SupplyCarrierGenerator - Split Carrier ID = supply_dp_dhl_wedemark_north, Direction = north, Demand = 8000
2024-07-02 18:17:05.286 [main] INFO  hagrid.demand.SupplyCarrierGenerator - Split Carrier ID = supply_dp_dhl_wedemark_west, Direction = west, Demand = 3384
2024-07-02 18:17:05.287 [main] INFO  hagrid.demand.SupplyCarrierGenerator - Split Carrier ID = supply_dp_dhl_uetze_north, Direction = north, Demand = 936
2024-07-02 18:17:05.287 [main] INFO  hagrid.demand.SupplyCarrierGenerator - Split Carrier ID = supply_dp_dhl_uetze_west, Direction = west, Demand = 2000
2024-07-02 18:17:05.288 [main] INFO  hagrid.demand.SupplyCarrierGenerator - Split Carrier ID = supply_dp_dhl_lehrte_east, Direction = east, Demand = 2000
2024-07-02 18:17:05.288 [main] INFO  hagrid.demand.SupplyCarrierGenerator - Split Carrier ID = supply_dp_dhl_lehrte_south, Direction = south, Demand = 2000
2024-07-02 18:17:05.289 [main] INFO  hagrid.demand.SupplyCarrierGenerator - Split Carrier ID = supply_dp_dhl_lehrte_north, Direction = north, Demand = 2314
2024-07-02 18:17:05.289 [main] INFO  hagrid.demand.SupplyCarrierGenerator - Split Carrier ID = supply_dp_dhl_neustadt_am_ruebenberge_east, Direction = east, Demand = 4000
2024-07-02 18:17:05.290 [main] INFO  hagrid.demand.SupplyCarrierGenerator - Split Carrier ID = supply_dp_dhl_neustadt_am_ruebenberge_north, Direction = north, Demand = 2382
2024-07-02 18:17:05.290 [main] INFO  hagrid.demand.SupplyCarrierGenerator - Split Carrier ID = supply_dp_dhl_wennigsen_south, Direction = south, Demand = 2000
2024-07-02 18:17:05.291 [main] INFO  hagrid.demand.SupplyCarrierGenerator - Split Carrier ID = supply_dp_dhl_wennigsen_north, Direction = north, Demand = 4974
2024-07-02 18:17:05.291 [main] INFO  hagrid.demand.SupplyCarrierGenerator - Split Carrier ID = supply_dp_dhl_sehnde_west, Direction = west, Demand = 1710
2024-07-02 18:17:05.292 [main] INFO  hagrid.demand.SupplyCarrierGenerator - Starting validation of direct supply carriers...
2024-07-02 18:17:05.293 [main] INFO  hagrid.demand.SupplyCarrierGenerator - Hub dpd_lehrte: Assigned Demand = 44244, Carrier Demand = 44244
2024-07-02 18:17:05.294 [main] INFO  hagrid.demand.SupplyCarrierGenerator - Hub gls_laatzen: Assigned Demand = 35362, Carrier Demand = 35362
2024-07-02 18:17:05.294 [main] INFO  hagrid.demand.SupplyCarrierGenerator - Hub hermes_langenhagen: Assigned Demand = 25206, Carrier Demand = 25206
2024-07-02 18:17:05.295 [main] INFO  hagrid.demand.SupplyCarrierGenerator - Hub amazon_garbsen: Assigned Demand = 36802, Carrier Demand = 36802
2024-07-02 18:17:05.295 [main] INFO  hagrid.demand.SupplyCarrierGenerator - Hub fedex_hannover: Assigned Demand = 26450, Carrier Demand = 26450
2024-07-02 18:17:05.296 [main] INFO  hagrid.demand.SupplyCarrierGenerator - Hub ups_hannover: Assigned Demand = 52982, Carrier Demand = 52982
2024-07-02 18:17:05.296 [main] INFO  hagrid.demand.SupplyCarrierGenerator - Validation successful: Total assigned direct supply demand matches total direct supply carrier demand.
2024-07-02 18:17:05.298 [main] INFO  hagrid.demand.SupplyCarrierGenerator - Validation successful: Total DHL assigned supply demand matches total carrier demand from and to Anderten.
2024-07-02 18:17:05.298 [main] INFO  hagrid.demand.SupplyCarrierGenerator - Total DHL provider assigned supply demand: 98580
2024-07-02 18:17:05.299 [main] INFO  hagrid.demand.SupplyCarrierGenerator - Carrier demand to Anderten: 98580
2024-07-02 18:17:05.299 [main] INFO  hagrid.demand.SupplyCarrierGenerator - Total DHL assigned supply demand excluding Anderten: 82904
2024-07-02 18:17:05.299 [main] INFO  hagrid.demand.SupplyCarrierGenerator - Carrier demand from Anderten: 82904
2024-07-02 18:17:05.300 [main] INFO  hagrid.demand.SupplyCarrierGenerator - Validation successful: Total demand for split carriers of supply_to_dhl_anderten matches original demand. Original Demand: 98580, Split Demand: 98580
2024-07-02 18:17:05.301 [main] INFO  hagrid.demand.SupplyCarrierGenerator - Validation successful: Total demand for split carriers of supply_dpd_lehrte matches original demand. Original Demand: 44244, Split Demand: 44244
2024-07-02 18:17:05.301 [main] INFO  hagrid.demand.SupplyCarrierGenerator - Validation successful: Total demand for split carriers of supply_gls_laatzen matches original demand. Original Demand: 35362, Split Demand: 35362
2024-07-02 18:17:05.302 [main] INFO  hagrid.demand.SupplyCarrierGenerator - Validation successful: Total demand for split carriers of supply_hermes_langenhagen matches original demand. Original Demand: 25206, Split Demand: 25206
2024-07-02 18:17:05.304 [main] INFO  hagrid.demand.SupplyCarrierGenerator - Validation successful: Total demand for split carriers of supply_amazon_garbsen matches original demand. Original Demand: 36802, Split Demand: 36802
2024-07-02 18:17:05.305 [main] INFO  hagrid.demand.SupplyCarrierGenerator - Validation successful: Total demand for split carriers of supply_fedex_hannover matches original demand. Original Demand: 26450, Split Demand: 26450
2024-07-02 18:17:05.305 [main] INFO  hagrid.demand.SupplyCarrierGenerator - Validation successful: Total demand for split carriers of supply_ups_hannover matches original demand. Original Demand: 52982, Split Demand: 52982
2024-07-02 18:17:05.306 [main] INFO  hagrid.demand.SupplyCarrierGenerator - Validation successful: Total demand for split carriers of supply_dp_dhl_burgdorf matches original demand. Original Demand: 7892, Split Demand: 7892
2024-07-02 18:17:05.307 [main] INFO  hagrid.demand.SupplyCarrierGenerator - Validation successful: Total demand for split carriers of supply_dp_dhl_springe matches original demand. Original Demand: 4172, Split Demand: 4172
2024-07-02 18:17:05.307 [main] INFO  hagrid.demand.SupplyCarrierGenerator - Validation successful: Total demand for split carriers of supply_dp_dhl_garbsen matches original demand. Original Demand: 6940, Split Demand: 6940
2024-07-02 18:17:05.308 [main] INFO  hagrid.demand.SupplyCarrierGenerator - Validation successful: Total demand for split carriers of supply_dp_dhl_seelze matches original demand. Original Demand: 9042, Split Demand: 9042
2024-07-02 18:17:05.308 [main] INFO  hagrid.demand.SupplyCarrierGenerator - Validation successful: Total demand for split carriers of supply_dp_dhl_wunstorf matches original demand. Original Demand: 8598, Split Demand: 8598
2024-07-02 18:17:05.309 [main] INFO  hagrid.demand.SupplyCarrierGenerator - Validation successful: Total demand for split carriers of supply_dp_dhl_wedemark matches original demand. Original Demand: 15384, Split Demand: 15384
2024-07-02 18:17:05.310 [main] INFO  hagrid.demand.SupplyCarrierGenerator - Validation successful: Total demand for split carriers of supply_dp_dhl_uetze matches original demand. Original Demand: 2936, Split Demand: 2936
2024-07-02 18:17:05.310 [main] INFO  hagrid.demand.SupplyCarrierGenerator - Validation successful: Total demand for split carriers of supply_dp_dhl_lehrte matches original demand. Original Demand: 6314, Split Demand: 6314
2024-07-02 18:17:05.311 [main] INFO  hagrid.demand.SupplyCarrierGenerator - Validation successful: Total demand for split carriers of supply_dp_dhl_neustadt_am_ruebenberge matches original demand. Original Demand: 6382, Split Demand: 6382
2024-07-02 18:17:05.311 [main] INFO  hagrid.demand.SupplyCarrierGenerator - Validation successful: Total demand for split carriers of supply_dp_dhl_wennigsen matches original demand. Original Demand: 6974, Split Demand: 6974
2024-07-02 18:17:05.312 [main] INFO  hagrid.demand.SupplyCarrierGenerator - Validation successful: Total demand for split carriers of supply_dp_dhl_sehnde matches original demand. Original Demand: 1710, Split Demand: 1710
2024-07-02 18:17:05.312 [main] INFO  org.matsim.freight.carriers.CarrierPlanXmlWriterV2_1 - write carrier plans
2024-07-02 18:17:05.316 [main] INFO  org.matsim.freight.carriers.CarrierPlanXmlWriterV2_1 - done
2024-07-02 18:17:05.316 [main] INFO  org.matsim.freight.carriers.CarrierPlanXmlWriterV2_1 - write carrier plans
2024-07-02 18:17:05.322 [main] INFO  org.matsim.freight.carriers.CarrierPlanXmlWriterV2_1 - done
2024-07-02 18:17:05.323 [main] INFO  hagrid.demand.SupplyCarrierGenerator - Supply carrier generation completed successfully.
2024-07-02 18:17:05.323 [main] INFO  hagrid.App - Supply carrier generation completed.
2024-07-02 18:17:05.324 [main] INFO  hagrid.App - Initializing CarrierRouter with threading type: FORK_JOIN_POOL...
2024-07-02 18:17:05.403 [main] INFO  hagrid.App - Application finished.
