2024-06-21 14:52:12.433 [main] INFO  hagrid.App - Starting application...
2024-06-21 14:52:12.586 [main] INFO  org.matsim.core.utils.io.IOUtils - Resolved phd/input/config.xml to phd\input\config.xml
2024-06-21 14:52:12.591 [main] INFO  org.matsim.core.config.Config - setting context to [file:/C:/Users/bienzeisler/Documents/GitHub/HAGRID/]
2024-06-21 14:52:12.669 [main] INFO  org.hibernate.validator.internal.util.Version - HV000001: Hibernate Validator 7.0.1.Final
2024-06-21 14:52:12.873 [main] INFO  org.matsim.core.utils.io.MatsimXmlParser - starting to parse xml from url file:/C:/Users/bienzeisler/Documents/GitHub/HAGRID/phd/input/config.xml ...
2024-06-21 14:52:12.917 [main] INFO  org.matsim.core.config.ConfigReader - using config_v2-reader
2024-06-21 14:52:12.918 [main] INFO  org.matsim.core.utils.io.MatsimXmlParser - Trying to load http://www.matsim.org/files/dtd/config_v2.dtd. In some cases (e.g. network interface up but no connection), this may take a bit.
2024-06-21 14:52:13.337 [main] INFO  org.matsim.core.config.groups.GlobalConfigGroup - setting number of threads to: 2
2024-06-21 14:52:13.357 [main] WARN  org.matsim.core.config.groups.ScoringConfigGroup - Setting pathSizeLogitBeta different from zero is experimental.  KN, Sep'08
2024-06-21 14:52:13.374 [main] INFO  org.matsim.core.config.groups.ScoringConfigGroup - scoring parameters for subpopulation null were just replaced.
2024-06-21 14:52:13.377 [main] WARN  org.matsim.core.config.groups.RoutingConfigGroup - The first mode routing (= teleported mode) params that are explicitly defined clear the default mode routing (= teleported mode) params.  If you want to avoid this 
2024-06-21 14:52:13.377 [main] WARN  org.matsim.core.config.groups.RoutingConfigGroup -     warning, use clearTeleportedModeParams(true) in code, and "clearDefaultTeleportedModeParams"=true in xml config.
2024-06-21 14:52:13.393 [main] INFO  org.matsim.core.config.Config - setting context to [file:/C:/Users/bienzeisler/Documents/GitHub/HAGRID/phd/input/config.xml]
2024-06-21 14:52:13.430 [main] INFO  org.matsim.core.scenario.ScenarioLoaderImpl - no facilities file set in config, therefore not loading any facilities.  This is not a problem except if you are using facilities
2024-06-21 14:52:13.431 [main] INFO  org.matsim.core.scenario.ScenarioLoaderImpl - no facility-attributes file set in config, not loading any facility attributes
2024-06-21 14:52:13.432 [main] INFO  org.matsim.core.scenario.ScenarioLoaderImpl - no population file set in config, not able to load population
2024-06-21 14:52:13.433 [main] INFO  org.matsim.core.scenario.ScenarioLoaderImpl - no person-attributes file set in config, not loading any person attributes
2024-06-21 14:52:13.434 [main] INFO  org.matsim.core.scenario.ScenarioLoaderImpl - no households file set in config, not loading households
2024-06-21 14:52:13.434 [main] INFO  org.matsim.core.scenario.ScenarioLoaderImpl - no transit schedule file set in config, not loading any transit schedule
2024-06-21 14:52:13.435 [main] INFO  org.matsim.core.scenario.ScenarioLoaderImpl - no transit vehicles file set in config, not loading any transit vehicles
2024-06-21 14:52:13.601 [main] INFO  hagrid.App - Initializing NetworkProcessor...
2024-06-21 14:52:13.612 [main] INFO  hagrid.App - Starting network processing...
2024-06-21 14:52:13.613 [main] INFO  hagrid.demand.NetworkProcessor - Starting network processing...
2024-06-21 14:52:13.627 [main] INFO  hagrid.demand.NetworkProcessor - Reading the network file from path: phd/input/reduced_network.xml.gz
2024-06-21 14:52:13.631 [main] INFO  org.matsim.core.utils.io.MatsimXmlParser - starting to parse xml from file phd/input/reduced_network.xml.gz ...
2024-06-21 14:52:13.632 [main] INFO  org.matsim.core.utils.io.IOUtils - Resolved phd/input/reduced_network.xml.gz to phd\input\reduced_network.xml.gz
2024-06-21 14:52:13.828 [main] INFO  org.matsim.core.network.io.MatsimNetworkReader - using network_v2-reader.
2024-06-21 14:52:13.828 [main] INFO  org.matsim.core.utils.io.MatsimXmlParser - Trying to load http://www.matsim.org/files/dtd/network_v2.dtd. In some cases (e.g. network interface up but no connection), this may take a bit.
2024-06-21 14:52:13.911 [main] INFO  org.matsim.core.network.NetworkImpl -  node # 1
2024-06-21 14:52:13.912 [main] INFO  org.matsim.core.network.NetworkImpl -  node # 4
2024-06-21 14:52:13.914 [main] INFO  org.matsim.core.network.NetworkImpl -  node # 16
2024-06-21 14:52:13.916 [main] INFO  org.matsim.core.network.NetworkImpl -  node # 64
2024-06-21 14:52:13.927 [main] INFO  org.matsim.core.network.NetworkImpl -  node # 256
2024-06-21 14:52:13.953 [main] INFO  org.matsim.core.network.NetworkImpl -  node # 1024
2024-06-21 14:52:13.998 [main] INFO  org.matsim.core.network.NetworkImpl -  node # 4096
2024-06-21 14:52:14.139 [main] INFO  org.matsim.core.network.NetworkImpl -  node # 16384
2024-06-21 14:52:14.228 [main] INFO  org.matsim.core.network.NetworkImpl -  link # 1
2024-06-21 14:52:14.239 [main] INFO  org.matsim.core.network.NetworkImpl -  link # 4
2024-06-21 14:52:14.244 [main] INFO  org.matsim.core.network.NetworkImpl -  link # 16
2024-06-21 14:52:14.301 [main] INFO  org.matsim.core.network.NetworkImpl -  link # 64
2024-06-21 14:52:14.369 [main] INFO  org.matsim.core.network.NetworkImpl -  link # 256
2024-06-21 14:52:14.462 [main] INFO  org.matsim.core.network.NetworkImpl -  link # 1024
2024-06-21 14:52:14.472 [main] WARN  org.matsim.api.core.v01.network.Link - length=0.0 of link id 1185132 may cause problems
2024-06-21 14:52:14.474 [main] WARN  org.matsim.api.core.v01.network.Link -  Future occurences of this logging statement are suppressed.
2024-06-21 14:52:14.617 [main] INFO  org.matsim.core.network.NetworkImpl -  link # 4096
2024-06-21 14:52:14.899 [main] INFO  org.matsim.core.network.NetworkImpl -  link # 16384
2024-06-21 14:52:14.945 [main] INFO  hagrid.demand.NetworkProcessor - Adjusting link lengths and free speeds...
2024-06-21 14:52:14.951 [main] INFO  hagrid.demand.NetworkProcessor - Link adjustments completed.
2024-06-21 14:52:14.951 [main] INFO  hagrid.demand.NetworkProcessor - Filtering network to include only car mode links...
2024-06-21 14:52:14.956 [main] INFO  org.matsim.core.config.Config - setting context to [file:/C:/Users/bienzeisler/Documents/GitHub/HAGRID/]
2024-06-21 14:52:14.962 [main] INFO  org.matsim.core.network.NetworkImpl -  node # 1
2024-06-21 14:52:14.963 [main] INFO  org.matsim.core.network.NetworkImpl -  node # 4
2024-06-21 14:52:14.963 [main] INFO  org.matsim.core.network.NetworkImpl -  node # 16
2024-06-21 14:52:14.964 [main] INFO  org.matsim.core.network.NetworkImpl -  node # 64
2024-06-21 14:52:14.964 [main] INFO  org.matsim.core.network.NetworkImpl -  node # 256
2024-06-21 14:52:14.965 [main] INFO  org.matsim.core.network.NetworkImpl -  node # 1024
2024-06-21 14:52:14.968 [main] INFO  org.matsim.core.network.NetworkImpl -  node # 4096
2024-06-21 14:52:14.976 [main] INFO  org.matsim.core.network.NetworkImpl -  node # 16384
2024-06-21 14:52:14.978 [main] INFO  org.matsim.core.network.NetworkImpl -  link # 1
2024-06-21 14:52:14.978 [main] INFO  org.matsim.core.network.NetworkImpl -  link # 4
2024-06-21 14:52:14.979 [main] INFO  org.matsim.core.network.NetworkImpl -  link # 16
2024-06-21 14:52:14.980 [main] INFO  org.matsim.core.network.NetworkImpl -  link # 64
2024-06-21 14:52:14.983 [main] INFO  org.matsim.core.network.NetworkImpl -  link # 256
2024-06-21 14:52:14.989 [main] INFO  org.matsim.core.network.NetworkImpl -  link # 1024
2024-06-21 14:52:15.008 [main] INFO  org.matsim.core.network.NetworkImpl -  link # 4096
2024-06-21 14:52:15.062 [main] INFO  org.matsim.core.network.NetworkImpl -  link # 16384
2024-06-21 14:52:15.085 [main] INFO  hagrid.demand.NetworkProcessor - Car mode network filtering completed.
2024-06-21 14:52:15.085 [main] INFO  hagrid.demand.NetworkProcessor - Creating parcel service network based on custom criteria...
2024-06-21 14:52:15.086 [main] INFO  org.matsim.core.config.Config - setting context to [file:/C:/Users/bienzeisler/Documents/GitHub/HAGRID/]
2024-06-21 14:52:15.092 [main] INFO  org.matsim.core.network.NetworkImpl -  node # 1
2024-06-21 14:52:15.092 [main] INFO  org.matsim.core.network.NetworkImpl -  node # 4
2024-06-21 14:52:15.093 [main] INFO  org.matsim.core.network.NetworkImpl -  node # 16
2024-06-21 14:52:15.093 [main] INFO  org.matsim.core.network.NetworkImpl -  node # 64
2024-06-21 14:52:15.093 [main] INFO  org.matsim.core.network.NetworkImpl -  node # 256
2024-06-21 14:52:15.094 [main] INFO  org.matsim.core.network.NetworkImpl -  node # 1024
2024-06-21 14:52:15.095 [main] INFO  org.matsim.core.network.NetworkImpl -  node # 4096
2024-06-21 14:52:15.097 [main] INFO  hagrid.demand.NetworkProcessor - Total number of links in the carFilteredNetwork: 19063
2024-06-21 14:52:15.098 [main] INFO  org.matsim.core.network.NetworkImpl -  link # 1
2024-06-21 14:52:15.098 [main] INFO  org.matsim.core.network.NetworkImpl -  link # 4
2024-06-21 14:52:15.100 [main] INFO  org.matsim.core.network.NetworkImpl -  link # 16
2024-06-21 14:52:15.101 [main] INFO  org.matsim.core.network.NetworkImpl -  link # 64
2024-06-21 14:52:15.101 [main] INFO  org.matsim.core.network.NetworkImpl -  link # 256
2024-06-21 14:52:15.108 [main] INFO  org.matsim.core.network.NetworkImpl -  link # 1024
2024-06-21 14:52:15.113 [main] INFO  org.matsim.core.network.NetworkImpl -  link # 4096
2024-06-21 14:52:15.129 [main] INFO  org.matsim.core.network.NetworkImpl -  link # 16384
2024-06-21 14:52:15.131 [main] INFO  hagrid.demand.NetworkProcessor - Parcel service network created successfully with 18730 links added.
2024-06-21 14:52:15.133 [main] INFO  hagrid.demand.NetworkProcessor - Difference in number of links between carFilteredNetwork and parcel service network: 333
2024-06-21 14:52:15.133 [main] INFO  hagrid.App - Network processing completed. Subnetworks created.
2024-06-21 14:52:15.133 [main] INFO  hagrid.App - Initializing LogisticsDataProcessor...
2024-06-21 14:52:15.134 [main] INFO  hagrid.App - Starting logistics data processing...
2024-06-21 14:52:15.135 [main] INFO  hagrid.demand.LogisticsDataProcessor - Reading logistics data...
2024-06-21 14:52:15.135 [main] INFO  hagrid.demand.LogisticsDataProcessor - Reading geodata of Hanover Region from folder: phd/input/geodata/Region Hannover.shp
2024-06-21 14:52:15.136 [main] INFO  org.matsim.core.utils.gis.GeoFileReader - will try to read from C:\Users\bienzeisler\Documents\GitHub\HAGRID\phd\input\geodata\Region Hannover.shp
2024-06-21 14:52:16.156 [main] INFO  hagrid.demand.LogisticsDataProcessor - Reading hub data from file: phd/input/hubs/KEP-hubs_v3.csv
2024-06-21 14:52:16.157 [main] INFO  hagrid.demand.LogisticsDataProcessor - Reading data from file: phd/input/hubs/KEP-hubs_v3.csv
2024-06-21 14:52:16.169 [main] INFO  org.matsim.core.network.NetworkImpl - building LinkQuadTree for nodes: xrange(286579.5670514173,953227.577157235); yrange(5242845.444958333,6018233.358636351)
2024-06-21 14:52:16.190 [main] INFO  org.matsim.core.network.NetworkImpl - Building LinkQuadTree took 0.027 seconds.
2024-06-21 14:52:16.197 [main] INFO  hagrid.demand.LogisticsDataProcessor - Read 25 entries from file: phd/input/hubs/KEP-hubs_v3.csv
2024-06-21 14:52:16.198 [main] INFO  hagrid.utils.GeoUtils - Original number of hubs: 25
2024-06-21 14:52:16.199 [main] INFO  hagrid.utils.GeoUtils - Filtering hubs by regions: BARSINGHAUSEN, BURGDORF, BURGWEDEL, GARBSEN, GEHRDEN, HANNOVER, HEMMINGEN, ISERNHAGEN, LAATZEN, LANGENHAGEN, LEHRTE, NEUSTADT, PATTENSEN, RONNENBERG, SEELZE, SEHNDE, SPRINGE, UETZE, WEDEMARK, WENNIGSEN, WUNSTORF
2024-06-21 14:52:16.254 [main] INFO  hagrid.utils.GeoUtils - Filtered number of hubs: 21
2024-06-21 14:52:16.254 [main] INFO  hagrid.utils.GeoUtils - Number of hubs removed: 4
2024-06-21 14:52:16.255 [main] INFO  hagrid.demand.LogisticsDataProcessor - Reading parcel locker data from file: phd/input/hubs/standorte_von_dhl.de.csv
2024-06-21 14:52:16.256 [main] INFO  hagrid.demand.LogisticsDataProcessor - Reading data from file: phd/input/hubs/standorte_von_dhl.de.csv
2024-06-21 14:52:17.261 [main] INFO  hagrid.demand.LogisticsDataProcessor - Read 44 entries from file: phd/input/hubs/standorte_von_dhl.de.csv
2024-06-21 14:52:17.261 [main] INFO  hagrid.demand.LogisticsDataProcessor - Reading shipping point data from folder: phd/input/hubs/standorte_von_paket.net/
2024-06-21 14:52:17.262 [main] INFO  hagrid.demand.LogisticsDataProcessor - Reading data from file: phd/input/hubs/standorte_von_paket.net/dhl_paketnet_list.csv
2024-06-21 14:52:17.354 [main] INFO  hagrid.demand.LogisticsDataProcessor - Read 301 entries from file: phd/input/hubs/standorte_von_paket.net/dhl_paketnet_list.csv
2024-06-21 14:52:17.355 [main] INFO  hagrid.demand.LogisticsDataProcessor - Reading data from file: phd/input/hubs/standorte_von_paket.net/dpd_paketnet_list.csv
2024-06-21 14:52:17.373 [main] INFO  hagrid.demand.LogisticsDataProcessor - Read 95 entries from file: phd/input/hubs/standorte_von_paket.net/dpd_paketnet_list.csv
2024-06-21 14:52:17.373 [main] INFO  hagrid.demand.LogisticsDataProcessor - Reading data from file: phd/input/hubs/standorte_von_paket.net/gls_paketnet_list.csv
2024-06-21 14:52:17.391 [main] INFO  hagrid.demand.LogisticsDataProcessor - Read 92 entries from file: phd/input/hubs/standorte_von_paket.net/gls_paketnet_list.csv
2024-06-21 14:52:17.392 [main] INFO  hagrid.demand.LogisticsDataProcessor - Reading data from file: phd/input/hubs/standorte_von_paket.net/hermes_paketnet_list.csv
2024-06-21 14:52:17.434 [main] INFO  hagrid.demand.LogisticsDataProcessor - Read 199 entries from file: phd/input/hubs/standorte_von_paket.net/hermes_paketnet_list.csv
2024-06-21 14:52:17.435 [main] INFO  hagrid.demand.LogisticsDataProcessor - Reading data from file: phd/input/hubs/standorte_von_paket.net/ups_paketnet_list.csv
2024-06-21 14:52:17.444 [main] INFO  hagrid.demand.LogisticsDataProcessor - Read 52 entries from file: phd/input/hubs/standorte_von_paket.net/ups_paketnet_list.csv
2024-06-21 14:52:17.445 [main] INFO  hagrid.utils.GeoUtils - No filtering applied. 'ALL' region specified. Returning all hubs.
2024-06-21 14:52:17.445 [main] INFO  hagrid.utils.GeoUtils - No filtering applied. 'ALL' region specified. Returning all hubs.
2024-06-21 14:52:17.445 [main] INFO  hagrid.demand.LogisticsDataProcessor - Loading carrier vehicle types...
2024-06-21 14:52:17.448 [main] INFO  org.matsim.freight.carriers.CarrierVehicleTypeReader - With early carrier vehicle type file formats, there will be an expected exception in the following.
2024-06-21 14:52:17.449 [main] INFO  org.matsim.core.utils.io.MatsimXmlParser - starting to parse xml from file phd/input/HAGRID_vehicleTypes.xml ...
2024-06-21 14:52:17.449 [main] INFO  org.matsim.core.utils.io.IOUtils - Resolved phd/input/HAGRID_vehicleTypes.xml to phd\input\HAGRID_vehicleTypes.xml
2024-06-21 14:52:17.517 [main] INFO  org.matsim.core.utils.io.MatsimXmlParser - Trying to load http://www.matsim.org/files/dtd/vehicleDefinitions_v2.0.xsd. In some cases (e.g. network interface up but no connection), this may take a bit.
2024-06-21 14:52:17.617 [main] INFO  org.matsim.core.utils.io.MatsimXmlParser - Trying to load http://www.matsim.org/files/dtd/matsimCommon.xsd. In some cases (e.g. network interface up but no connection), this may take a bit.
2024-06-21 14:52:17.700 [main] INFO  org.matsim.core.utils.io.MatsimXmlParser - Trying to load http://www.matsim.org/files/dtd/vehicleDefinitionsEnumTypes.xsd. In some cases (e.g. network interface up but no connection), this may take a bit.
2024-06-21 14:52:17.823 [main] INFO  org.matsim.freight.carriers.CarrierVehicleTypeReader - Using central vehicle parser
2024-06-21 14:52:17.827 [main] INFO  org.matsim.vehicles.MatsimVehicleReader - Found following schemaLocation in vehicle definition file: http://www.matsim.org/files/dtd http://www.matsim.org/files/dtd/vehicleDefinitions_v2.0.xsd
2024-06-21 14:52:17.829 [main] INFO  org.matsim.vehicles.VehicleReaderV2 - Using org.matsim.vehicles.VehicleReaderV2
2024-06-21 14:52:17.847 [main] INFO  hagrid.demand.LogisticsDataProcessor - Logistics data processing completed.
2024-06-21 14:52:17.848 [main] INFO  hagrid.App - Logistics data processing completed.
2024-06-21 14:52:17.848 [main] INFO  hagrid.App - Initializing DemandProcessor...
2024-06-21 14:52:17.849 [main] INFO  hagrid.App - Starting demand data processing...
2024-06-21 14:52:17.849 [main] INFO  hagrid.demand.DemandProcessor - Reading freight demand data from file: T:/bienzeisler/USEfUL-XT/matsim-hanover/01_MATSimModelCreator/vm-hochrechnung_matsim-punkte_epsg25832_mit_plz_v4_b2b.shp
2024-06-21 14:52:17.850 [main] WARN  org.matsim.core.utils.gis.GeoFileReader - Unsafe method! store.dispose() is not called from within this method
2024-06-21 14:52:19.065 [main] INFO  org.matsim.core.utils.gis.GeoFileReader - features to read #46565
2024-06-21 14:52:19.072 [main] INFO  org.matsim.core.utils.misc.Counter - features read #1
2024-06-21 14:52:19.074 [main] INFO  org.matsim.core.utils.misc.Counter - features read #2
2024-06-21 14:52:19.076 [main] INFO  org.matsim.core.utils.misc.Counter - features read #4
2024-06-21 14:52:19.077 [main] INFO  org.matsim.core.utils.misc.Counter - features read #8
2024-06-21 14:52:19.079 [main] INFO  org.matsim.core.utils.misc.Counter - features read #16
2024-06-21 14:52:19.114 [main] INFO  org.matsim.core.utils.misc.Counter - features read #32
2024-06-21 14:52:19.365 [main] INFO  org.matsim.core.utils.misc.Counter - features read #64
2024-06-21 14:52:19.373 [main] INFO  org.matsim.core.utils.misc.Counter - features read #128
2024-06-21 14:52:19.383 [main] INFO  org.matsim.core.utils.misc.Counter - features read #256
2024-06-21 14:52:19.608 [main] INFO  org.matsim.core.utils.misc.Counter - features read #512
2024-06-21 14:52:20.004 [main] INFO  org.matsim.core.utils.misc.Counter - features read #1024
2024-06-21 14:52:20.577 [main] INFO  org.matsim.core.utils.misc.Counter - features read #2048
2024-06-21 14:52:21.323 [main] INFO  org.matsim.core.utils.misc.Counter - features read #4096
2024-06-21 14:52:22.822 [main] INFO  org.matsim.core.utils.misc.Counter - features read #8192
2024-06-21 14:52:25.061 [main] INFO  org.matsim.core.utils.misc.Counter - features read #16384
2024-06-21 14:52:29.389 [main] INFO  org.matsim.core.utils.misc.Counter - features read #32768
2024-06-21 14:52:33.908 [main] INFO  org.matsim.core.utils.misc.Counter - features read #46565
2024-06-21 14:52:33.914 [main] INFO  hagrid.utils.GeoUtils - No filtering applied. 'ALL' region specified. Returning all features.
2024-06-21 14:52:34.216 [main] INFO  hagrid.demand.DemandProcessor - Total Number of Deliveries: 105984
2024-06-21 14:52:34.216 [main] INFO  hagrid.demand.DemandProcessor - Total Number of Parcels: 196885
2024-06-21 14:52:34.246 [main] INFO  hagrid.demand.DemandProcessor - Demand Border: 600
2024-06-21 14:52:34.248 [main] INFO  hagrid.demand.DemandProcessor - Need for Split: dhl_31275: Number of Deliveries: 1557
2024-06-21 14:52:34.252 [main] INFO  hagrid.demand.DemandProcessor - Initializing KMeans clustering with 3 clusters...
2024-06-21 14:52:34.404 [main] INFO  hagrid.demand.DemandProcessor - Cluster 1: 519 features
2024-06-21 14:52:34.405 [main] INFO  hagrid.demand.DemandProcessor - Cluster 2: 519 features
2024-06-21 14:52:34.405 [main] INFO  hagrid.demand.DemandProcessor - Cluster 3: 519 features
2024-06-21 14:52:34.405 [main] INFO  hagrid.demand.DemandProcessor - Total number of clusters created: 3
2024-06-21 14:52:34.929 [main] INFO  hagrid.demand.DemandProcessor - Chart saved successfully at: phd/output/demand_clustering/ClusterResults_dhl_31275.png
2024-06-21 14:52:34.934 [main] INFO  hagrid.demand.DemandProcessor - Assigned Demand for new Carrier dhl_31275_0: 519
2024-06-21 14:52:34.934 [main] INFO  hagrid.demand.DemandProcessor - Assigned Demand for new Carrier dhl_31275_1: 519
2024-06-21 14:52:34.935 [main] INFO  hagrid.demand.DemandProcessor - Assigned Demand for new Carrier dhl_31275_2: 519
2024-06-21 14:52:34.937 [main] INFO  hagrid.demand.DemandProcessor - Need for Split: dhl_30880: Number of Deliveries: 950
2024-06-21 14:52:34.939 [main] INFO  hagrid.demand.DemandProcessor - Initializing KMeans clustering with 2 clusters...
2024-06-21 14:52:34.950 [main] INFO  hagrid.demand.DemandProcessor - Cluster 1: 475 features
2024-06-21 14:52:34.952 [main] INFO  hagrid.demand.DemandProcessor - Cluster 2: 475 features
2024-06-21 14:52:34.952 [main] INFO  hagrid.demand.DemandProcessor - Total number of clusters created: 2
2024-06-21 14:52:35.630 [main] INFO  hagrid.demand.DemandProcessor - Chart saved successfully at: phd/output/demand_clustering/ClusterResults_dhl_30880.png
2024-06-21 14:52:35.631 [main] INFO  hagrid.demand.DemandProcessor - Assigned Demand for new Carrier dhl_30880_0: 475
2024-06-21 14:52:35.632 [main] INFO  hagrid.demand.DemandProcessor - Assigned Demand for new Carrier dhl_30880_1: 475
2024-06-21 14:52:35.632 [main] INFO  hagrid.demand.DemandProcessor - Need for Split: dhl_31311: Number of Deliveries: 839
2024-06-21 14:52:35.633 [main] INFO  hagrid.demand.DemandProcessor - Initializing KMeans clustering with 2 clusters...
2024-06-21 14:52:35.643 [main] INFO  hagrid.demand.DemandProcessor - Cluster 1: 420 features
2024-06-21 14:52:35.645 [main] INFO  hagrid.demand.DemandProcessor - Cluster 2: 419 features
2024-06-21 14:52:35.646 [main] INFO  hagrid.demand.DemandProcessor - Total number of clusters created: 2
2024-06-21 14:52:36.058 [main] INFO  hagrid.demand.DemandProcessor - Chart saved successfully at: phd/output/demand_clustering/ClusterResults_dhl_31311.png
2024-06-21 14:52:36.058 [main] INFO  hagrid.demand.DemandProcessor - Assigned Demand for new Carrier dhl_31311_0: 420
2024-06-21 14:52:36.059 [main] INFO  hagrid.demand.DemandProcessor - Assigned Demand for new Carrier dhl_31311_1: 419
2024-06-21 14:52:36.060 [main] INFO  hagrid.demand.DemandProcessor - Need for Split: ups_31535: Number of Deliveries: 719
2024-06-21 14:52:36.061 [main] INFO  hagrid.demand.DemandProcessor - Initializing KMeans clustering with 2 clusters...
2024-06-21 14:52:36.067 [main] INFO  hagrid.demand.DemandProcessor - Cluster 1: 359 features
2024-06-21 14:52:36.067 [main] INFO  hagrid.demand.DemandProcessor - Cluster 2: 360 features
2024-06-21 14:52:36.068 [main] INFO  hagrid.demand.DemandProcessor - Total number of clusters created: 2
2024-06-21 14:52:36.190 [main] INFO  hagrid.demand.DemandProcessor - Chart saved successfully at: phd/output/demand_clustering/ClusterResults_ups_31535.png
2024-06-21 14:52:36.191 [main] INFO  hagrid.demand.DemandProcessor - Assigned Demand for new Carrier ups_31535_0: 359
2024-06-21 14:52:36.192 [main] INFO  hagrid.demand.DemandProcessor - Assigned Demand for new Carrier ups_31535_1: 360
2024-06-21 14:52:36.193 [main] INFO  hagrid.demand.DemandProcessor - Need for Split: ups_31515: Number of Deliveries: 668
2024-06-21 14:52:36.194 [main] INFO  hagrid.demand.DemandProcessor - Initializing KMeans clustering with 2 clusters...
2024-06-21 14:52:36.201 [main] INFO  hagrid.demand.DemandProcessor - Cluster 1: 334 features
2024-06-21 14:52:36.202 [main] INFO  hagrid.demand.DemandProcessor - Cluster 2: 334 features
2024-06-21 14:52:36.202 [main] INFO  hagrid.demand.DemandProcessor - Total number of clusters created: 2
2024-06-21 14:52:36.306 [main] INFO  hagrid.demand.DemandProcessor - Chart saved successfully at: phd/output/demand_clustering/ClusterResults_ups_31515.png
2024-06-21 14:52:36.306 [main] INFO  hagrid.demand.DemandProcessor - Assigned Demand for new Carrier ups_31515_0: 334
2024-06-21 14:52:36.308 [main] INFO  hagrid.demand.DemandProcessor - Assigned Demand for new Carrier ups_31515_1: 334
2024-06-21 14:52:36.309 [main] INFO  hagrid.demand.DemandProcessor - Need for Split: dhl_30419: Number of Deliveries: 838
2024-06-21 14:52:36.309 [main] INFO  hagrid.demand.DemandProcessor - Initializing KMeans clustering with 2 clusters...
2024-06-21 14:52:36.314 [main] INFO  hagrid.demand.DemandProcessor - Cluster 1: 419 features
2024-06-21 14:52:36.315 [main] INFO  hagrid.demand.DemandProcessor - Cluster 2: 419 features
2024-06-21 14:52:36.315 [main] INFO  hagrid.demand.DemandProcessor - Total number of clusters created: 2
2024-06-21 14:52:36.416 [main] INFO  hagrid.demand.DemandProcessor - Chart saved successfully at: phd/output/demand_clustering/ClusterResults_dhl_30419.png
2024-06-21 14:52:36.417 [main] INFO  hagrid.demand.DemandProcessor - Assigned Demand for new Carrier dhl_30419_0: 419
2024-06-21 14:52:36.417 [main] INFO  hagrid.demand.DemandProcessor - Assigned Demand for new Carrier dhl_30419_1: 419
2024-06-21 14:52:36.418 [main] INFO  hagrid.demand.DemandProcessor - Need for Split: dhl_30519: Number of Deliveries: 650
2024-06-21 14:52:36.418 [main] INFO  hagrid.demand.DemandProcessor - Initializing KMeans clustering with 2 clusters...
2024-06-21 14:52:36.423 [main] INFO  hagrid.demand.DemandProcessor - Cluster 1: 325 features
2024-06-21 14:52:36.424 [main] INFO  hagrid.demand.DemandProcessor - Cluster 2: 325 features
2024-06-21 14:52:36.424 [main] INFO  hagrid.demand.DemandProcessor - Total number of clusters created: 2
2024-06-21 14:52:36.527 [main] INFO  hagrid.demand.DemandProcessor - Chart saved successfully at: phd/output/demand_clustering/ClusterResults_dhl_30519.png
2024-06-21 14:52:36.528 [main] INFO  hagrid.demand.DemandProcessor - Assigned Demand for new Carrier dhl_30519_0: 325
2024-06-21 14:52:36.528 [main] INFO  hagrid.demand.DemandProcessor - Assigned Demand for new Carrier dhl_30519_1: 325
2024-06-21 14:52:36.529 [main] INFO  hagrid.demand.DemandProcessor - Need for Split: dhl_30938: Number of Deliveries: 861
2024-06-21 14:52:36.530 [main] INFO  hagrid.demand.DemandProcessor - Initializing KMeans clustering with 2 clusters...
2024-06-21 14:52:36.535 [main] INFO  hagrid.demand.DemandProcessor - Cluster 1: 430 features
2024-06-21 14:52:36.535 [main] INFO  hagrid.demand.DemandProcessor - Cluster 2: 431 features
2024-06-21 14:52:36.536 [main] INFO  hagrid.demand.DemandProcessor - Total number of clusters created: 2
2024-06-21 14:52:36.685 [main] INFO  hagrid.demand.DemandProcessor - Chart saved successfully at: phd/output/demand_clustering/ClusterResults_dhl_30938.png
2024-06-21 14:52:36.686 [main] INFO  hagrid.demand.DemandProcessor - Assigned Demand for new Carrier dhl_30938_0: 430
2024-06-21 14:52:36.686 [main] INFO  hagrid.demand.DemandProcessor - Assigned Demand for new Carrier dhl_30938_1: 431
2024-06-21 14:52:36.688 [main] INFO  hagrid.demand.DemandProcessor - Need for Split: dhl_30916: Number of Deliveries: 945
2024-06-21 14:52:36.688 [main] INFO  hagrid.demand.DemandProcessor - Initializing KMeans clustering with 2 clusters...
2024-06-21 14:52:36.699 [main] INFO  hagrid.demand.DemandProcessor - Cluster 1: 473 features
2024-06-21 14:52:36.699 [main] INFO  hagrid.demand.DemandProcessor - Cluster 2: 472 features
2024-06-21 14:52:36.700 [main] INFO  hagrid.demand.DemandProcessor - Total number of clusters created: 2
2024-06-21 14:52:36.814 [main] INFO  hagrid.demand.DemandProcessor - Chart saved successfully at: phd/output/demand_clustering/ClusterResults_dhl_30916.png
2024-06-21 14:52:36.815 [main] INFO  hagrid.demand.DemandProcessor - Assigned Demand for new Carrier dhl_30916_0: 473
2024-06-21 14:52:36.815 [main] INFO  hagrid.demand.DemandProcessor - Assigned Demand for new Carrier dhl_30916_1: 472
2024-06-21 14:52:36.816 [main] INFO  hagrid.demand.DemandProcessor - Need for Split: ups_31275: Number of Deliveries: 729
2024-06-21 14:52:36.817 [main] INFO  hagrid.demand.DemandProcessor - Initializing KMeans clustering with 2 clusters...
2024-06-21 14:52:36.825 [main] INFO  hagrid.demand.DemandProcessor - Cluster 1: 365 features
2024-06-21 14:52:36.825 [main] INFO  hagrid.demand.DemandProcessor - Cluster 2: 364 features
2024-06-21 14:52:36.826 [main] INFO  hagrid.demand.DemandProcessor - Total number of clusters created: 2
2024-06-21 14:52:36.913 [main] INFO  hagrid.demand.DemandProcessor - Chart saved successfully at: phd/output/demand_clustering/ClusterResults_ups_31275.png
2024-06-21 14:52:36.913 [main] INFO  hagrid.demand.DemandProcessor - Assigned Demand for new Carrier ups_31275_0: 365
2024-06-21 14:52:36.914 [main] INFO  hagrid.demand.DemandProcessor - Assigned Demand for new Carrier ups_31275_1: 364
2024-06-21 14:52:36.915 [main] INFO  hagrid.demand.DemandProcessor - Need for Split: dhl_31303: Number of Deliveries: 1073
2024-06-21 14:52:36.915 [main] INFO  hagrid.demand.DemandProcessor - Initializing KMeans clustering with 2 clusters...
2024-06-21 14:52:36.936 [main] INFO  hagrid.demand.DemandProcessor - Cluster 1: 537 features
2024-06-21 14:52:36.936 [main] INFO  hagrid.demand.DemandProcessor - Cluster 2: 536 features
2024-06-21 14:52:36.938 [main] INFO  hagrid.demand.DemandProcessor - Total number of clusters created: 2
2024-06-21 14:52:37.048 [main] INFO  hagrid.demand.DemandProcessor - Chart saved successfully at: phd/output/demand_clustering/ClusterResults_dhl_31303.png
2024-06-21 14:52:37.049 [main] INFO  hagrid.demand.DemandProcessor - Assigned Demand for new Carrier dhl_31303_0: 537
2024-06-21 14:52:37.051 [main] INFO  hagrid.demand.DemandProcessor - Assigned Demand for new Carrier dhl_31303_1: 536
2024-06-21 14:52:37.051 [main] INFO  hagrid.demand.DemandProcessor - Need for Split: dhl_30952: Number of Deliveries: 692
2024-06-21 14:52:37.052 [main] INFO  hagrid.demand.DemandProcessor - Initializing KMeans clustering with 2 clusters...
2024-06-21 14:52:37.057 [main] INFO  hagrid.demand.DemandProcessor - Cluster 1: 346 features
2024-06-21 14:52:37.058 [main] INFO  hagrid.demand.DemandProcessor - Cluster 2: 346 features
2024-06-21 14:52:37.058 [main] INFO  hagrid.demand.DemandProcessor - Total number of clusters created: 2
2024-06-21 14:52:37.153 [main] INFO  hagrid.demand.DemandProcessor - Chart saved successfully at: phd/output/demand_clustering/ClusterResults_dhl_30952.png
2024-06-21 14:52:37.154 [main] INFO  hagrid.demand.DemandProcessor - Assigned Demand for new Carrier dhl_30952_0: 346
2024-06-21 14:52:37.154 [main] INFO  hagrid.demand.DemandProcessor - Assigned Demand for new Carrier dhl_30952_1: 346
2024-06-21 14:52:37.155 [main] INFO  hagrid.demand.DemandProcessor - Need for Split: dpd_30855: Number of Deliveries: 645
2024-06-21 14:52:37.156 [main] INFO  hagrid.demand.DemandProcessor - Initializing KMeans clustering with 2 clusters...
2024-06-21 14:52:37.159 [main] INFO  hagrid.demand.DemandProcessor - Cluster 1: 322 features
2024-06-21 14:52:37.159 [main] INFO  hagrid.demand.DemandProcessor - Cluster 2: 323 features
2024-06-21 14:52:37.160 [main] INFO  hagrid.demand.DemandProcessor - Total number of clusters created: 2
2024-06-21 14:52:37.241 [main] INFO  hagrid.demand.DemandProcessor - Chart saved successfully at: phd/output/demand_clustering/ClusterResults_dpd_30855.png
2024-06-21 14:52:37.241 [main] INFO  hagrid.demand.DemandProcessor - Assigned Demand for new Carrier dpd_30855_0: 322
2024-06-21 14:52:37.242 [main] INFO  hagrid.demand.DemandProcessor - Assigned Demand for new Carrier dpd_30855_1: 323
2024-06-21 14:52:37.242 [main] INFO  hagrid.demand.DemandProcessor - Need for Split: dhl_30855: Number of Deliveries: 1052
2024-06-21 14:52:37.243 [main] INFO  hagrid.demand.DemandProcessor - Initializing KMeans clustering with 2 clusters...
2024-06-21 14:52:37.250 [main] INFO  hagrid.demand.DemandProcessor - Cluster 1: 526 features
2024-06-21 14:52:37.251 [main] INFO  hagrid.demand.DemandProcessor - Cluster 2: 526 features
2024-06-21 14:52:37.251 [main] INFO  hagrid.demand.DemandProcessor - Total number of clusters created: 2
2024-06-21 14:52:37.325 [main] INFO  hagrid.demand.DemandProcessor - Chart saved successfully at: phd/output/demand_clustering/ClusterResults_dhl_30855.png
2024-06-21 14:52:37.326 [main] INFO  hagrid.demand.DemandProcessor - Assigned Demand for new Carrier dhl_30855_0: 526
2024-06-21 14:52:37.326 [main] INFO  hagrid.demand.DemandProcessor - Assigned Demand for new Carrier dhl_30855_1: 526
2024-06-21 14:52:37.326 [main] INFO  hagrid.demand.DemandProcessor - Need for Split: dhl_30559: Number of Deliveries: 682
2024-06-21 14:52:37.327 [main] INFO  hagrid.demand.DemandProcessor - Initializing KMeans clustering with 2 clusters...
2024-06-21 14:52:37.330 [main] INFO  hagrid.demand.DemandProcessor - Cluster 1: 341 features
2024-06-21 14:52:37.330 [main] INFO  hagrid.demand.DemandProcessor - Cluster 2: 341 features
2024-06-21 14:52:37.330 [main] INFO  hagrid.demand.DemandProcessor - Total number of clusters created: 2
2024-06-21 14:52:37.404 [main] INFO  hagrid.demand.DemandProcessor - Chart saved successfully at: phd/output/demand_clustering/ClusterResults_dhl_30559.png
2024-06-21 14:52:37.405 [main] INFO  hagrid.demand.DemandProcessor - Assigned Demand for new Carrier dhl_30559_0: 341
2024-06-21 14:52:37.405 [main] INFO  hagrid.demand.DemandProcessor - Assigned Demand for new Carrier dhl_30559_1: 341
2024-06-21 14:52:37.406 [main] INFO  hagrid.demand.DemandProcessor - Need for Split: dpd_31535: Number of Deliveries: 641
2024-06-21 14:52:37.408 [main] INFO  hagrid.demand.DemandProcessor - Initializing KMeans clustering with 2 clusters...
2024-06-21 14:52:37.414 [main] INFO  hagrid.demand.DemandProcessor - Cluster 1: 320 features
2024-06-21 14:52:37.414 [main] INFO  hagrid.demand.DemandProcessor - Cluster 2: 321 features
2024-06-21 14:52:37.414 [main] INFO  hagrid.demand.DemandProcessor - Total number of clusters created: 2
2024-06-21 14:52:37.486 [main] INFO  hagrid.demand.DemandProcessor - Chart saved successfully at: phd/output/demand_clustering/ClusterResults_dpd_31535.png
2024-06-21 14:52:37.489 [main] INFO  hagrid.demand.DemandProcessor - Assigned Demand for new Carrier dpd_31535_0: 320
2024-06-21 14:52:37.489 [main] INFO  hagrid.demand.DemandProcessor - Assigned Demand for new Carrier dpd_31535_1: 321
2024-06-21 14:52:37.490 [main] INFO  hagrid.demand.DemandProcessor - Need for Split: dhl_30890: Number of Deliveries: 1138
2024-06-21 14:52:37.491 [main] INFO  hagrid.demand.DemandProcessor - Initializing KMeans clustering with 2 clusters...
2024-06-21 14:52:37.505 [main] INFO  hagrid.demand.DemandProcessor - Cluster 1: 569 features
2024-06-21 14:52:37.506 [main] INFO  hagrid.demand.DemandProcessor - Cluster 2: 569 features
2024-06-21 14:52:37.506 [main] INFO  hagrid.demand.DemandProcessor - Total number of clusters created: 2
2024-06-21 14:52:37.592 [main] INFO  hagrid.demand.DemandProcessor - Chart saved successfully at: phd/output/demand_clustering/ClusterResults_dhl_30890.png
2024-06-21 14:52:37.593 [main] INFO  hagrid.demand.DemandProcessor - Assigned Demand for new Carrier dhl_30890_0: 569
2024-06-21 14:52:37.593 [main] INFO  hagrid.demand.DemandProcessor - Assigned Demand for new Carrier dhl_30890_1: 569
2024-06-21 14:52:37.594 [main] INFO  hagrid.demand.DemandProcessor - Need for Split: ups_30855: Number of Deliveries: 717
2024-06-21 14:52:37.595 [main] INFO  hagrid.demand.DemandProcessor - Initializing KMeans clustering with 2 clusters...
2024-06-21 14:52:37.601 [main] INFO  hagrid.demand.DemandProcessor - Cluster 1: 359 features
2024-06-21 14:52:37.602 [main] INFO  hagrid.demand.DemandProcessor - Cluster 2: 358 features
2024-06-21 14:52:37.602 [main] INFO  hagrid.demand.DemandProcessor - Total number of clusters created: 2
2024-06-21 14:52:37.659 [main] INFO  hagrid.demand.DemandProcessor - Chart saved successfully at: phd/output/demand_clustering/ClusterResults_ups_30855.png
2024-06-21 14:52:37.660 [main] INFO  hagrid.demand.DemandProcessor - Assigned Demand for new Carrier ups_30855_0: 359
2024-06-21 14:52:37.660 [main] INFO  hagrid.demand.DemandProcessor - Assigned Demand for new Carrier ups_30855_1: 358
2024-06-21 14:52:37.661 [main] INFO  hagrid.demand.DemandProcessor - Need for Split: dhl_30826: Number of Deliveries: 648
2024-06-21 14:52:37.662 [main] INFO  hagrid.demand.DemandProcessor - Initializing KMeans clustering with 2 clusters...
2024-06-21 14:52:37.664 [main] INFO  hagrid.demand.DemandProcessor - Cluster 1: 324 features
2024-06-21 14:52:37.664 [main] INFO  hagrid.demand.DemandProcessor - Cluster 2: 324 features
2024-06-21 14:52:37.665 [main] INFO  hagrid.demand.DemandProcessor - Total number of clusters created: 2
2024-06-21 14:52:37.729 [main] INFO  hagrid.demand.DemandProcessor - Chart saved successfully at: phd/output/demand_clustering/ClusterResults_dhl_30826.png
2024-06-21 14:52:37.730 [main] INFO  hagrid.demand.DemandProcessor - Assigned Demand for new Carrier dhl_30826_0: 324
2024-06-21 14:52:37.731 [main] INFO  hagrid.demand.DemandProcessor - Assigned Demand for new Carrier dhl_30826_1: 324
2024-06-21 14:52:37.732 [main] INFO  hagrid.demand.DemandProcessor - Need for Split: dhl_30926: Number of Deliveries: 924
2024-06-21 14:52:37.732 [main] INFO  hagrid.demand.DemandProcessor - Initializing KMeans clustering with 2 clusters...
2024-06-21 14:52:37.737 [main] INFO  hagrid.demand.DemandProcessor - Cluster 1: 462 features
2024-06-21 14:52:37.739 [main] INFO  hagrid.demand.DemandProcessor - Cluster 2: 462 features
2024-06-21 14:52:37.740 [main] INFO  hagrid.demand.DemandProcessor - Total number of clusters created: 2
2024-06-21 14:52:37.836 [main] INFO  hagrid.demand.DemandProcessor - Chart saved successfully at: phd/output/demand_clustering/ClusterResults_dhl_30926.png
2024-06-21 14:52:37.837 [main] INFO  hagrid.demand.DemandProcessor - Assigned Demand for new Carrier dhl_30926_0: 462
2024-06-21 14:52:37.837 [main] INFO  hagrid.demand.DemandProcessor - Assigned Demand for new Carrier dhl_30926_1: 462
2024-06-21 14:52:37.838 [main] INFO  hagrid.demand.DemandProcessor - Need for Split: dhl_31832: Number of Deliveries: 1059
2024-06-21 14:52:37.838 [main] INFO  hagrid.demand.DemandProcessor - Initializing KMeans clustering with 2 clusters...
2024-06-21 14:52:37.850 [main] INFO  hagrid.demand.DemandProcessor - Cluster 1: 529 features
2024-06-21 14:52:37.851 [main] INFO  hagrid.demand.DemandProcessor - Cluster 2: 530 features
2024-06-21 14:52:37.851 [main] INFO  hagrid.demand.DemandProcessor - Total number of clusters created: 2
2024-06-21 14:52:37.962 [main] INFO  hagrid.demand.DemandProcessor - Chart saved successfully at: phd/output/demand_clustering/ClusterResults_dhl_31832.png
2024-06-21 14:52:37.962 [main] INFO  hagrid.demand.DemandProcessor - Assigned Demand for new Carrier dhl_31832_0: 529
2024-06-21 14:52:37.963 [main] INFO  hagrid.demand.DemandProcessor - Assigned Demand for new Carrier dhl_31832_1: 530
2024-06-21 14:52:37.964 [main] INFO  hagrid.demand.DemandProcessor - Need for Split: dhl_31535: Number of Deliveries: 1661
2024-06-21 14:52:37.965 [main] INFO  hagrid.demand.DemandProcessor - Initializing KMeans clustering with 3 clusters...
2024-06-21 14:52:38.119 [main] INFO  hagrid.demand.DemandProcessor - Cluster 1: 553 features
2024-06-21 14:52:38.120 [main] INFO  hagrid.demand.DemandProcessor - Cluster 2: 554 features
2024-06-21 14:52:38.121 [main] INFO  hagrid.demand.DemandProcessor - Cluster 3: 554 features
2024-06-21 14:52:38.121 [main] INFO  hagrid.demand.DemandProcessor - Total number of clusters created: 3
2024-06-21 14:52:38.217 [main] INFO  hagrid.demand.DemandProcessor - Chart saved successfully at: phd/output/demand_clustering/ClusterResults_dhl_31535.png
2024-06-21 14:52:38.218 [main] INFO  hagrid.demand.DemandProcessor - Assigned Demand for new Carrier dhl_31535_0: 553
2024-06-21 14:52:38.218 [main] INFO  hagrid.demand.DemandProcessor - Assigned Demand for new Carrier dhl_31535_1: 554
2024-06-21 14:52:38.220 [main] INFO  hagrid.demand.DemandProcessor - Assigned Demand for new Carrier dhl_31535_2: 554
2024-06-21 14:52:38.220 [main] INFO  hagrid.demand.DemandProcessor - Need for Split: dpd_31275: Number of Deliveries: 620
2024-06-21 14:52:38.220 [main] INFO  hagrid.demand.DemandProcessor - Initializing KMeans clustering with 2 clusters...
2024-06-21 14:52:38.223 [main] INFO  hagrid.demand.DemandProcessor - Cluster 1: 310 features
2024-06-21 14:52:38.223 [main] INFO  hagrid.demand.DemandProcessor - Cluster 2: 310 features
2024-06-21 14:52:38.223 [main] INFO  hagrid.demand.DemandProcessor - Total number of clusters created: 2
2024-06-21 14:52:38.283 [main] INFO  hagrid.demand.DemandProcessor - Chart saved successfully at: phd/output/demand_clustering/ClusterResults_dpd_31275.png
2024-06-21 14:52:38.283 [main] INFO  hagrid.demand.DemandProcessor - Assigned Demand for new Carrier dpd_31275_0: 310
2024-06-21 14:52:38.284 [main] INFO  hagrid.demand.DemandProcessor - Assigned Demand for new Carrier dpd_31275_1: 310
2024-06-21 14:52:38.285 [main] INFO  hagrid.demand.DemandProcessor - Need for Split: dhl_31515: Number of Deliveries: 1407
2024-06-21 14:52:38.285 [main] INFO  hagrid.demand.DemandProcessor - Initializing KMeans clustering with 3 clusters...
2024-06-21 14:52:38.295 [main] INFO  hagrid.demand.DemandProcessor - Cluster 1: 469 features
2024-06-21 14:52:38.296 [main] INFO  hagrid.demand.DemandProcessor - Cluster 2: 469 features
2024-06-21 14:52:38.296 [main] INFO  hagrid.demand.DemandProcessor - Cluster 3: 469 features
2024-06-21 14:52:38.297 [main] INFO  hagrid.demand.DemandProcessor - Total number of clusters created: 3
2024-06-21 14:52:38.380 [main] INFO  hagrid.demand.DemandProcessor - Chart saved successfully at: phd/output/demand_clustering/ClusterResults_dhl_31515.png
2024-06-21 14:52:38.380 [main] INFO  hagrid.demand.DemandProcessor - Assigned Demand for new Carrier dhl_31515_0: 469
2024-06-21 14:52:38.381 [main] INFO  hagrid.demand.DemandProcessor - Assigned Demand for new Carrier dhl_31515_1: 469
2024-06-21 14:52:38.381 [main] INFO  hagrid.demand.DemandProcessor - Assigned Demand for new Carrier dhl_31515_2: 469
2024-06-21 14:52:38.382 [main] INFO  hagrid.demand.DemandProcessor - Need for Split: dhl_30823: Number of Deliveries: 657
2024-06-21 14:52:38.382 [main] INFO  hagrid.demand.DemandProcessor - Initializing KMeans clustering with 2 clusters...
2024-06-21 14:52:38.384 [main] INFO  hagrid.demand.DemandProcessor - Cluster 1: 328 features
2024-06-21 14:52:38.384 [main] INFO  hagrid.demand.DemandProcessor - Cluster 2: 329 features
2024-06-21 14:52:38.386 [main] INFO  hagrid.demand.DemandProcessor - Total number of clusters created: 2
2024-06-21 14:52:38.444 [main] INFO  hagrid.demand.DemandProcessor - Chart saved successfully at: phd/output/demand_clustering/ClusterResults_dhl_30823.png
2024-06-21 14:52:38.445 [main] INFO  hagrid.demand.DemandProcessor - Assigned Demand for new Carrier dhl_30823_0: 328
2024-06-21 14:52:38.445 [main] INFO  hagrid.demand.DemandProcessor - Assigned Demand for new Carrier dhl_30823_1: 329
2024-06-21 14:52:38.446 [main] INFO  hagrid.demand.DemandProcessor - Need for Split: dhl_30966: Number of Deliveries: 648
2024-06-21 14:52:38.446 [main] INFO  hagrid.demand.DemandProcessor - Initializing KMeans clustering with 2 clusters...
2024-06-21 14:52:38.448 [main] INFO  hagrid.demand.DemandProcessor - Cluster 1: 324 features
2024-06-21 14:52:38.448 [main] INFO  hagrid.demand.DemandProcessor - Cluster 2: 324 features
2024-06-21 14:52:38.449 [main] INFO  hagrid.demand.DemandProcessor - Total number of clusters created: 2
2024-06-21 14:52:38.514 [main] INFO  hagrid.demand.DemandProcessor - Chart saved successfully at: phd/output/demand_clustering/ClusterResults_dhl_30966.png
2024-06-21 14:52:38.515 [main] INFO  hagrid.demand.DemandProcessor - Assigned Demand for new Carrier dhl_30966_0: 324
2024-06-21 14:52:38.515 [main] INFO  hagrid.demand.DemandProcessor - Assigned Demand for new Carrier dhl_30966_1: 324
2024-06-21 14:52:38.516 [main] INFO  hagrid.demand.DemandProcessor - Need for Split: dhl_30900: Number of Deliveries: 1308
2024-06-21 14:52:38.516 [main] INFO  hagrid.demand.DemandProcessor - Initializing KMeans clustering with 3 clusters...
2024-06-21 14:52:38.527 [main] INFO  hagrid.demand.DemandProcessor - Cluster 1: 436 features
2024-06-21 14:52:38.528 [main] INFO  hagrid.demand.DemandProcessor - Cluster 2: 436 features
2024-06-21 14:52:38.528 [main] INFO  hagrid.demand.DemandProcessor - Cluster 3: 436 features
2024-06-21 14:52:38.528 [main] INFO  hagrid.demand.DemandProcessor - Total number of clusters created: 3
2024-06-21 14:52:38.615 [main] INFO  hagrid.demand.DemandProcessor - Chart saved successfully at: phd/output/demand_clustering/ClusterResults_dhl_30900.png
2024-06-21 14:52:38.616 [main] INFO  hagrid.demand.DemandProcessor - Assigned Demand for new Carrier dhl_30900_0: 436
2024-06-21 14:52:38.616 [main] INFO  hagrid.demand.DemandProcessor - Assigned Demand for new Carrier dhl_30900_1: 436
2024-06-21 14:52:38.617 [main] INFO  hagrid.demand.DemandProcessor - Assigned Demand for new Carrier dhl_30900_2: 436
2024-06-21 14:52:38.617 [main] INFO  hagrid.demand.DemandProcessor - Need for Split: dhl_31319: Number of Deliveries: 945
2024-06-21 14:52:38.618 [main] INFO  hagrid.demand.DemandProcessor - Initializing KMeans clustering with 2 clusters...
2024-06-21 14:52:38.621 [main] INFO  hagrid.demand.DemandProcessor - Cluster 1: 472 features
2024-06-21 14:52:38.621 [main] INFO  hagrid.demand.DemandProcessor - Cluster 2: 473 features
2024-06-21 14:52:38.621 [main] INFO  hagrid.demand.DemandProcessor - Total number of clusters created: 2
2024-06-21 14:52:38.692 [main] INFO  hagrid.demand.DemandProcessor - Chart saved successfully at: phd/output/demand_clustering/ClusterResults_dhl_31319.png
2024-06-21 14:52:38.693 [main] INFO  hagrid.demand.DemandProcessor - Assigned Demand for new Carrier dhl_31319_0: 472
2024-06-21 14:52:38.693 [main] INFO  hagrid.demand.DemandProcessor - Assigned Demand for new Carrier dhl_31319_1: 473
2024-06-21 14:52:38.732 [main] INFO  hagrid.demand.DemandProcessor - Total Number of Deliveries: 105984
2024-06-21 14:52:38.732 [main] INFO  hagrid.demand.DemandProcessor - Total Number of Parcels: 196885
2024-06-21 14:52:38.733 [main] INFO  hagrid.demand.DemandProcessor - Validation completed successfully: Total number of deliveries and parcels match.
2024-06-21 14:52:38.733 [main] INFO  hagrid.demand.DemandProcessor - Freight demand data processing completed.
2024-06-21 14:52:38.733 [main] INFO  hagrid.App - Demand data processing completed.
2024-06-21 14:52:38.733 [main] INFO  hagrid.App - Initializing DeliveryGenerator...
2024-06-21 14:52:38.735 [main] INFO  hagrid.App - Starting delivery generation based on sorted Demand...
2024-06-21 14:52:38.735 [main] INFO  hagrid.demand.DeliveryGenerator - Generating parcels from sorted carrier demand...
2024-06-21 14:52:38.735 [main] INFO  hagrid.demand.DeliveryGenerator - Total Parcels from carrier demand: 105984
2024-06-21 14:52:39.034 [main] INFO  hagrid.utils.general.ParcelStatisticsLogger - === Overall Summary ===
  Total Deliveries      : 106.028
  Total B2B Deliveries  : 19.188
  Total Parcels         : 197.985
  Total B2B Parcels     : 47.252
  B2B Delivery Ratio    : 18,10%
  B2B Parcel Ratio      : 23,87%
  Average Weight        : 4,92
  Average B2B Weight    : 9,14
  Total Locker Deliveries: 44
  Total Locker Parcels: 1.100
  Locker Delivery Ratio : 0,04%
  Locker Parcel Ratio : 0,56%

2024-06-21 14:52:39.038 [main] INFO  hagrid.demand.DeliveryGenerator - Parcel generation completed.
2024-06-21 14:52:39.038 [main] INFO  hagrid.App - Delivery and parcel generation completed.
2024-06-21 14:52:39.039 [main] INFO  hagrid.App - Initializing CarrierGenerator...
2024-06-21 14:52:39.040 [main] INFO  hagrid.App - Starting carrier generation based on sorted demand...
2024-06-21 14:52:39.041 [main] INFO  hagrid.demand.CarrierGenerator - Generating carriers from sorted deliveries and parcels...
2024-06-21 14:52:39.041 [main] INFO  hagrid.demand.CarrierGenerator - Getting scenario elements...
2024-06-21 14:52:39.043 [main] INFO  hagrid.demand.CarrierGenerator - Scenario elements retrieved.
2024-06-21 14:52:39.069 [main] INFO  org.matsim.core.network.NetworkImpl - building LinkQuadTree for nodes: xrange(288335.4442501353,953227.577157235); yrange(5242845.444958333,6003702.4934690865)
2024-06-21 14:52:39.116 [main] INFO  org.matsim.core.network.NetworkImpl - Building LinkQuadTree took 0.055 seconds.
2024-06-21 14:52:40.777 [main] INFO  hagrid.demand.CarrierGenerator - Carrier with the most services: amazon_30855 with 598 services
2024-06-21 14:52:40.777 [main] INFO  hagrid.demand.CarrierGenerator - Carrier with the least services: hermes_30938 with 61 services
2024-06-21 14:52:40.779 [main] INFO  hagrid.demand.CarrierGenerator - Number of carriers removed with fewer than 5 services: 0
2024-06-21 14:52:40.779 [main] INFO  hagrid.demand.CarrierGenerator - Number of remaining carriers: 389
2024-06-21 14:52:40.779 [main] INFO  hagrid.demand.CarrierGenerator - Carriers generated: 389
2024-06-21 14:52:40.779 [main] INFO  hagrid.demand.CarrierGenerator - Validating carrier missed deliveries...
2024-06-21 14:52:40.779 [main] INFO  hagrid.demand.CarrierGenerator - Validation passed for all carriers and their missed parcel deliveries.
2024-06-21 14:52:40.780 [main] INFO  hagrid.demand.CarrierGenerator - Validation of carrier missed deliveries completed.
2024-06-21 14:52:40.780 [main] INFO  hagrid.demand.CarrierGenerator - Validating carrier services...
2024-06-21 14:52:40.904 [main] INFO  hagrid.demand.CarrierGenerator - Correction factor for Delivery Size Adjustment: 1
2024-06-21 14:52:40.994 [main] INFO  hagrid.demand.CarrierGenerator - Missed parcels for provider amazon: average rate 95,12%
2024-06-21 14:52:40.995 [main] INFO  hagrid.demand.CarrierGenerator - Expected rate for provider amazon: 95,00%
2024-06-21 14:52:40.995 [main] INFO  hagrid.demand.CarrierGenerator - Missed parcels for provider fedex: average rate 92,17%
2024-06-21 14:52:40.995 [main] INFO  hagrid.demand.CarrierGenerator - Expected rate for provider fedex: 92,00%
2024-06-21 14:52:40.996 [main] INFO  hagrid.demand.CarrierGenerator - Missed parcels for provider ups: average rate 91,76%
2024-06-21 14:52:40.996 [main] INFO  hagrid.demand.CarrierGenerator - Expected rate for provider ups: 92,00%
2024-06-21 14:52:40.996 [main] INFO  hagrid.demand.CarrierGenerator - Missed parcels for provider dpd: average rate 91,85%
2024-06-21 14:52:40.996 [main] INFO  hagrid.demand.CarrierGenerator - Expected rate for provider dpd: 92,00%
2024-06-21 14:52:40.997 [main] INFO  hagrid.demand.CarrierGenerator - Missed parcels for provider dhl: average rate 95,48%
2024-06-21 14:52:40.997 [main] INFO  hagrid.demand.CarrierGenerator - Expected rate for provider dhl: 96,00%
2024-06-21 14:52:40.997 [main] INFO  hagrid.demand.CarrierGenerator - Missed parcels for provider hermes: average rate 93,43%
2024-06-21 14:52:40.998 [main] INFO  hagrid.demand.CarrierGenerator - Expected rate for provider hermes: 93,00%
2024-06-21 14:52:40.998 [main] INFO  hagrid.demand.CarrierGenerator - Missed parcels for provider gls: average rate 92,83%
2024-06-21 14:52:40.998 [main] INFO  hagrid.demand.CarrierGenerator - Expected rate for provider gls: 93,00%
2024-06-21 14:52:41.136 [main] INFO  hagrid.demand.CarrierGenerator - === Delivery Statistics by Provider ===
Provider: amazon
  Total Services     : 12.592
  B2B Services       : 283
  Total Parcels      : 18.401
  B2B Parcels        : 532
  B2B Service Ratio  : 2,25%
  B2B Parcel Ratio   : 2,89%
  Total Weight       : 74232,90
  Total B2B Weight   : 4904,97
  Average Weight     : 4,03
  Average B2B Weight : 9,22

Provider: fedex
  Total Services     : 9.911
  B2B Services       : 2.115
  Total Parcels      : 13.225
  B2B Parcels        : 3.415
  B2B Service Ratio  : 21,34%
  B2B Parcel Ratio   : 25,82%
  Total Weight       : 69352,10
  Total B2B Weight   : 32076,23
  Average Weight     : 5,24
  Average B2B Weight : 9,39

Provider: ups
  Total Services     : 16.314
  B2B Services       : 3.286
  Total Parcels      : 26.491
  B2B Parcels        : 6.854
  B2B Service Ratio  : 20,14%
  B2B Parcel Ratio   : 25,87%
  Total Weight       : 140452,36
  Total B2B Weight   : 63499,90
  Average Weight     : 5,30
  Average B2B Weight : 9,26

Provider: dpd
  Total Services     : 14.390
  B2B Services       : 3.027
  Total Parcels      : 22.122
  B2B Parcels        : 5.919
  B2B Service Ratio  : 21,04%
  B2B Parcel Ratio   : 26,76%
  Total Weight       : 117396,29
  Total B2B Weight   : 54508,71
  Average Weight     : 5,31
  Average B2B Weight : 9,21

Provider: dhl
  Total Services     : 31.058
  B2B Services       : 5.879
  Total Parcels      : 87.462
  B2B Parcels        : 22.822
  B2B Service Ratio  : 18,93%
  B2B Parcel Ratio   : 26,09%
  Total Weight       : 463698,47
  Total B2B Weight   : 214123,95
  Average Weight     : 5,30
  Average B2B Weight : 9,38

Provider: hermes
  Total Services     : 9.570
  B2B Services       : 2.091
  Total Parcels      : 12.603
  B2B Parcels        : 3.160
  B2B Service Ratio  : 21,85%
  B2B Parcel Ratio   : 25,07%
  Total Weight       : 67038,86
  Total B2B Weight   : 29971,32
  Average Weight     : 5,32
  Average B2B Weight : 9,48

Provider: gls
  Total Services     : 12.194
  B2B Services       : 2.508
  Total Parcels      : 17.681
  B2B Parcels        : 4.550
  B2B Service Ratio  : 20,57%
  B2B Parcel Ratio   : 25,73%
  Total Weight       : 92582,88
  Total B2B Weight   : 42446,26
  Average Weight     : 5,24
  Average B2B Weight : 9,33

=== Total Statistics ===
Total Services     : 106.029
Total B2B Services : 19.189
Total Parcels      : 197.985
Total B2B Parcels  : 47.252
Total Weight       : 1024753,86
Total B2B Weight   : 441531,34
Average Weight     : 5,18
Average B2B Weight : 9,34

2024-06-21 14:52:41.145 [main] INFO  hagrid.demand.CarrierGenerator - Validation passed: All carrier services match the original deliveries summary.
2024-06-21 14:52:41.145 [main] INFO  hagrid.demand.CarrierGenerator - Total deliveries match: 106028.
2024-06-21 14:52:41.145 [main] INFO  hagrid.demand.CarrierGenerator - Total parcels match: 197985.
2024-06-21 14:52:41.146 [main] INFO  hagrid.demand.CarrierGenerator - Total B2B deliveries match: 19188.
2024-06-21 14:52:41.146 [main] INFO  hagrid.demand.CarrierGenerator - Total B2B parcels match: 47252.
2024-06-21 14:52:41.146 [main] INFO  hagrid.demand.CarrierGenerator - Validation of carrier completed.
2024-06-21 14:52:41.146 [main] INFO  hagrid.demand.CarrierGenerator - Starting validation of supply demand...
2024-06-21 14:52:41.158 [main] INFO  hagrid.demand.CarrierGenerator - Hub ID: dhl_hannover_sued, Assigned Supply Demand: 12027
2024-06-21 14:52:41.158 [main] INFO  hagrid.demand.CarrierGenerator - Hub ID: dp/dhl_burgdorf, Assigned Supply Demand: 3948
2024-06-21 14:52:41.159 [main] INFO  hagrid.demand.CarrierGenerator - Hub ID: dhl_hannover_gueterbahnhof, Assigned Supply Demand: 26150
2024-06-21 14:52:41.159 [main] INFO  hagrid.demand.CarrierGenerator - Hub ID: dpd_lehrte, Assigned Supply Demand: 22122
2024-06-21 14:52:41.159 [main] INFO  hagrid.demand.CarrierGenerator - Hub ID: dhl_pattensen, Assigned Supply Demand: 4634
2024-06-21 14:52:41.159 [main] INFO  hagrid.demand.CarrierGenerator - Hub ID: gls_laatzen, Assigned Supply Demand: 17681
2024-06-21 14:52:41.159 [main] INFO  hagrid.demand.CarrierGenerator - Hub ID: dp/dhl_springe, Assigned Supply Demand: 2086
2024-06-21 14:52:41.160 [main] INFO  hagrid.demand.CarrierGenerator - Hub ID: dp/dhl_garbsen, Assigned Supply Demand: 3470
2024-06-21 14:52:41.160 [main] INFO  hagrid.demand.CarrierGenerator - Hub ID: dp/dhl_seelze, Assigned Supply Demand: 3162
2024-06-21 14:52:41.160 [main] INFO  hagrid.demand.CarrierGenerator - Hub ID: hermes_langenhagen, Assigned Supply Demand: 12603
2024-06-21 14:52:41.160 [main] INFO  hagrid.demand.CarrierGenerator - Hub ID: dp/dhl_wunstorf, Assigned Supply Demand: 4299
2024-06-21 14:52:41.161 [main] INFO  hagrid.demand.CarrierGenerator - Hub ID: dp/dhl_wedemark, Assigned Supply Demand: 7690
2024-06-21 14:52:41.161 [main] INFO  hagrid.demand.CarrierGenerator - Hub ID: dp/dhl_uetze, Assigned Supply Demand: 1468
2024-06-21 14:52:41.161 [main] INFO  hagrid.demand.CarrierGenerator - Hub ID: dp/dhl_lehrte, Assigned Supply Demand: 3157
2024-06-21 14:52:41.161 [main] INFO  hagrid.demand.CarrierGenerator - Hub ID: dp/dhl_neustadt_am_ruebenberge, Assigned Supply Demand: 3191
2024-06-21 14:52:41.162 [main] INFO  hagrid.demand.CarrierGenerator - Hub ID: dhl_hannover_anderten, Assigned Supply Demand: 7838
2024-06-21 14:52:41.162 [main] INFO  hagrid.demand.CarrierGenerator - Hub ID: amazon_garbsen, Assigned Supply Demand: 18401
2024-06-21 14:52:41.164 [main] INFO  hagrid.demand.CarrierGenerator - Hub ID: fedex_hannover, Assigned Supply Demand: 13225
2024-06-21 14:52:41.164 [main] INFO  hagrid.demand.CarrierGenerator - Hub ID: ups_hannover, Assigned Supply Demand: 26491
2024-06-21 14:52:41.165 [main] INFO  hagrid.demand.CarrierGenerator - Hub ID: dp/dhl_wennigsen, Assigned Supply Demand: 3487
2024-06-21 14:52:41.165 [main] INFO  hagrid.demand.CarrierGenerator - Hub ID: dp/dhl_sehnde, Assigned Supply Demand: 855
2024-06-21 14:52:41.166 [main] INFO  hagrid.demand.CarrierGenerator - Total Parcels: 197985, Total Assigned Supply Demand: 197985
2024-06-21 14:52:41.166 [main] INFO  hagrid.demand.CarrierGenerator - Validation successful: Total parcels match total assigned supply demand.
2024-06-21 14:52:41.166 [main] INFO  hagrid.utils.general.HAGRIDUtils - Starting to check and log carrier attributes
2024-06-21 14:52:41.444 [main] INFO  hagrid.demand.CarrierGenerator - Carrier generation completed.
2024-06-21 14:52:41.485 [main] INFO  org.matsim.freight.carriers.CarrierPlanXmlWriterV2_1 - write carrier plans
2024-06-21 14:52:41.564 [main] WARN  org.matsim.utils.objectattributes.ObjectAttributesConverter - No AttributeConverter found for class hagrid.utils.demand.Hub. Not all attribute values can be converted.
2024-06-21 14:52:42.580 [main] INFO  org.matsim.freight.carriers.CarrierPlanXmlWriterV2_1 - done
2024-06-21 14:52:42.580 [main] INFO  hagrid.App - Carrier generation completed.
2024-06-21 14:52:42.580 [main] INFO  hagrid.App - Initializing SupplyCarrierGenerator...
2024-06-21 14:52:42.584 [main] INFO  hagrid.App - Starting supply carrier generation based on generated carriers...
2024-06-21 14:52:42.584 [main] INFO  hagrid.demand.SupplyCarrierGenerator - Generating supply carriers from existing carriers and services...
2024-06-21 14:52:42.585 [main] INFO  hagrid.demand.SupplyCarrierGenerator - Supply carrier generation completed.
2024-06-21 14:52:42.585 [main] INFO  hagrid.App - Supply carrier generation completed.
2024-06-21 14:52:42.585 [main] INFO  hagrid.App - Application finished.
2024-06-21 14:56:34.274 [main] INFO  hagrid.App - Starting application...
2024-06-21 14:56:34.414 [main] INFO  org.matsim.core.utils.io.IOUtils - Resolved phd/input/config.xml to phd\input\config.xml
2024-06-21 14:56:34.417 [main] INFO  org.matsim.core.config.Config - setting context to [file:/C:/Users/bienzeisler/Documents/GitHub/HAGRID/]
2024-06-21 14:56:34.527 [main] INFO  org.hibernate.validator.internal.util.Version - HV000001: Hibernate Validator 7.0.1.Final
2024-06-21 14:56:34.762 [main] INFO  org.matsim.core.utils.io.MatsimXmlParser - starting to parse xml from url file:/C:/Users/bienzeisler/Documents/GitHub/HAGRID/phd/input/config.xml ...
2024-06-21 14:56:34.806 [main] INFO  org.matsim.core.config.ConfigReader - using config_v2-reader
2024-06-21 14:56:34.808 [main] INFO  org.matsim.core.utils.io.MatsimXmlParser - Trying to load http://www.matsim.org/files/dtd/config_v2.dtd. In some cases (e.g. network interface up but no connection), this may take a bit.
2024-06-21 14:56:34.962 [main] INFO  org.matsim.core.config.groups.GlobalConfigGroup - setting number of threads to: 2
2024-06-21 14:56:35.013 [main] WARN  org.matsim.core.config.groups.ScoringConfigGroup - Setting pathSizeLogitBeta different from zero is experimental.  KN, Sep'08
2024-06-21 14:56:35.033 [main] INFO  org.matsim.core.config.groups.ScoringConfigGroup - scoring parameters for subpopulation null were just replaced.
2024-06-21 14:56:35.035 [main] WARN  org.matsim.core.config.groups.RoutingConfigGroup - The first mode routing (= teleported mode) params that are explicitly defined clear the default mode routing (= teleported mode) params.  If you want to avoid this 
2024-06-21 14:56:35.036 [main] WARN  org.matsim.core.config.groups.RoutingConfigGroup -     warning, use clearTeleportedModeParams(true) in code, and "clearDefaultTeleportedModeParams"=true in xml config.
2024-06-21 14:56:35.054 [main] INFO  org.matsim.core.config.Config - setting context to [file:/C:/Users/bienzeisler/Documents/GitHub/HAGRID/phd/input/config.xml]
2024-06-21 14:56:35.082 [main] INFO  org.matsim.core.scenario.ScenarioLoaderImpl - no facilities file set in config, therefore not loading any facilities.  This is not a problem except if you are using facilities
2024-06-21 14:56:35.082 [main] INFO  org.matsim.core.scenario.ScenarioLoaderImpl - no facility-attributes file set in config, not loading any facility attributes
2024-06-21 14:56:35.083 [main] INFO  org.matsim.core.scenario.ScenarioLoaderImpl - no population file set in config, not able to load population
2024-06-21 14:56:35.083 [main] INFO  org.matsim.core.scenario.ScenarioLoaderImpl - no person-attributes file set in config, not loading any person attributes
2024-06-21 14:56:35.083 [main] INFO  org.matsim.core.scenario.ScenarioLoaderImpl - no households file set in config, not loading households
2024-06-21 14:56:35.085 [main] INFO  org.matsim.core.scenario.ScenarioLoaderImpl - no transit schedule file set in config, not loading any transit schedule
2024-06-21 14:56:35.085 [main] INFO  org.matsim.core.scenario.ScenarioLoaderImpl - no transit vehicles file set in config, not loading any transit vehicles
2024-06-21 14:56:35.235 [main] INFO  hagrid.App - Initializing NetworkProcessor...
2024-06-21 14:56:35.245 [main] INFO  hagrid.App - Starting network processing...
2024-06-21 14:56:35.246 [main] INFO  hagrid.demand.NetworkProcessor - Starting network processing...
2024-06-21 14:56:35.256 [main] INFO  hagrid.demand.NetworkProcessor - Reading the network file from path: phd/input/reduced_network.xml.gz
2024-06-21 14:56:35.259 [main] INFO  org.matsim.core.utils.io.MatsimXmlParser - starting to parse xml from file phd/input/reduced_network.xml.gz ...
2024-06-21 14:56:35.260 [main] INFO  org.matsim.core.utils.io.IOUtils - Resolved phd/input/reduced_network.xml.gz to phd\input\reduced_network.xml.gz
2024-06-21 14:56:35.419 [main] INFO  org.matsim.core.network.io.MatsimNetworkReader - using network_v2-reader.
2024-06-21 14:56:35.419 [main] INFO  org.matsim.core.utils.io.MatsimXmlParser - Trying to load http://www.matsim.org/files/dtd/network_v2.dtd. In some cases (e.g. network interface up but no connection), this may take a bit.
2024-06-21 14:56:35.506 [main] INFO  org.matsim.core.network.NetworkImpl -  node # 1
2024-06-21 14:56:35.507 [main] INFO  org.matsim.core.network.NetworkImpl -  node # 4
2024-06-21 14:56:35.509 [main] INFO  org.matsim.core.network.NetworkImpl -  node # 16
2024-06-21 14:56:35.512 [main] INFO  org.matsim.core.network.NetworkImpl -  node # 64
2024-06-21 14:56:35.526 [main] INFO  org.matsim.core.network.NetworkImpl -  node # 256
2024-06-21 14:56:35.552 [main] INFO  org.matsim.core.network.NetworkImpl -  node # 1024
2024-06-21 14:56:35.596 [main] INFO  org.matsim.core.network.NetworkImpl -  node # 4096
2024-06-21 14:56:35.723 [main] INFO  org.matsim.core.network.NetworkImpl -  node # 16384
2024-06-21 14:56:35.735 [main] INFO  org.matsim.core.network.NetworkImpl -  link # 1
2024-06-21 14:56:35.739 [main] INFO  org.matsim.core.network.NetworkImpl -  link # 4
2024-06-21 14:56:35.742 [main] INFO  org.matsim.core.network.NetworkImpl -  link # 16
2024-06-21 14:56:35.757 [main] INFO  org.matsim.core.network.NetworkImpl -  link # 64
2024-06-21 14:56:35.782 [main] INFO  org.matsim.core.network.NetworkImpl -  link # 256
2024-06-21 14:56:35.828 [main] INFO  org.matsim.core.network.NetworkImpl -  link # 1024
2024-06-21 14:56:35.835 [main] WARN  org.matsim.api.core.v01.network.Link - length=0.0 of link id 1185132 may cause problems
2024-06-21 14:56:35.837 [main] WARN  org.matsim.api.core.v01.network.Link -  Future occurences of this logging statement are suppressed.
2024-06-21 14:56:36.061 [main] INFO  org.matsim.core.network.NetworkImpl -  link # 4096
2024-06-21 14:56:36.425 [main] INFO  org.matsim.core.network.NetworkImpl -  link # 16384
2024-06-21 14:56:36.490 [main] INFO  hagrid.demand.NetworkProcessor - Adjusting link lengths and free speeds...
2024-06-21 14:56:36.499 [main] INFO  hagrid.demand.NetworkProcessor - Link adjustments completed.
2024-06-21 14:56:36.500 [main] INFO  hagrid.demand.NetworkProcessor - Filtering network to include only car mode links...
2024-06-21 14:56:36.501 [main] INFO  org.matsim.core.config.Config - setting context to [file:/C:/Users/bienzeisler/Documents/GitHub/HAGRID/]
2024-06-21 14:56:36.510 [main] INFO  org.matsim.core.network.NetworkImpl -  node # 1
2024-06-21 14:56:36.510 [main] INFO  org.matsim.core.network.NetworkImpl -  node # 4
2024-06-21 14:56:36.511 [main] INFO  org.matsim.core.network.NetworkImpl -  node # 16
2024-06-21 14:56:36.511 [main] INFO  org.matsim.core.network.NetworkImpl -  node # 64
2024-06-21 14:56:36.512 [main] INFO  org.matsim.core.network.NetworkImpl -  node # 256
2024-06-21 14:56:36.513 [main] INFO  org.matsim.core.network.NetworkImpl -  node # 1024
2024-06-21 14:56:36.517 [main] INFO  org.matsim.core.network.NetworkImpl -  node # 4096
2024-06-21 14:56:36.529 [main] INFO  org.matsim.core.network.NetworkImpl -  node # 16384
2024-06-21 14:56:36.531 [main] INFO  org.matsim.core.network.NetworkImpl -  link # 1
2024-06-21 14:56:36.532 [main] INFO  org.matsim.core.network.NetworkImpl -  link # 4
2024-06-21 14:56:36.534 [main] INFO  org.matsim.core.network.NetworkImpl -  link # 16
2024-06-21 14:56:36.535 [main] INFO  org.matsim.core.network.NetworkImpl -  link # 64
2024-06-21 14:56:36.541 [main] INFO  org.matsim.core.network.NetworkImpl -  link # 256
2024-06-21 14:56:36.549 [main] INFO  org.matsim.core.network.NetworkImpl -  link # 1024
2024-06-21 14:56:36.570 [main] INFO  org.matsim.core.network.NetworkImpl -  link # 4096
2024-06-21 14:56:36.661 [main] INFO  org.matsim.core.network.NetworkImpl -  link # 16384
2024-06-21 14:56:36.718 [main] INFO  hagrid.demand.NetworkProcessor - Car mode network filtering completed.
2024-06-21 14:56:36.719 [main] INFO  hagrid.demand.NetworkProcessor - Creating parcel service network based on custom criteria...
2024-06-21 14:56:36.725 [main] INFO  org.matsim.core.config.Config - setting context to [file:/C:/Users/bienzeisler/Documents/GitHub/HAGRID/]
2024-06-21 14:56:36.744 [main] INFO  org.matsim.core.network.NetworkImpl -  node # 1
2024-06-21 14:56:36.750 [main] INFO  org.matsim.core.network.NetworkImpl -  node # 4
2024-06-21 14:56:36.758 [main] INFO  org.matsim.core.network.NetworkImpl -  node # 16
2024-06-21 14:56:36.768 [main] INFO  org.matsim.core.network.NetworkImpl -  node # 64
2024-06-21 14:56:36.768 [main] INFO  org.matsim.core.network.NetworkImpl -  node # 256
2024-06-21 14:56:36.774 [main] INFO  org.matsim.core.network.NetworkImpl -  node # 1024
2024-06-21 14:56:36.780 [main] INFO  org.matsim.core.network.NetworkImpl -  node # 4096
2024-06-21 14:56:36.789 [main] INFO  hagrid.demand.NetworkProcessor - Total number of links in the carFilteredNetwork: 19063
2024-06-21 14:56:36.791 [main] INFO  org.matsim.core.network.NetworkImpl -  link # 1
2024-06-21 14:56:36.792 [main] INFO  org.matsim.core.network.NetworkImpl -  link # 4
2024-06-21 14:56:36.794 [main] INFO  org.matsim.core.network.NetworkImpl -  link # 16
2024-06-21 14:56:36.796 [main] INFO  org.matsim.core.network.NetworkImpl -  link # 64
2024-06-21 14:56:36.799 [main] INFO  org.matsim.core.network.NetworkImpl -  link # 256
2024-06-21 14:56:36.803 [main] INFO  org.matsim.core.network.NetworkImpl -  link # 1024
2024-06-21 14:56:36.814 [main] INFO  org.matsim.core.network.NetworkImpl -  link # 4096
2024-06-21 14:56:36.848 [main] INFO  org.matsim.core.network.NetworkImpl -  link # 16384
2024-06-21 14:56:36.851 [main] INFO  hagrid.demand.NetworkProcessor - Parcel service network created successfully with 18730 links added.
2024-06-21 14:56:36.854 [main] INFO  hagrid.demand.NetworkProcessor - Difference in number of links between carFilteredNetwork and parcel service network: 333
2024-06-21 14:56:36.855 [main] INFO  hagrid.App - Network processing completed. Subnetworks created.
2024-06-21 14:56:36.857 [main] INFO  hagrid.App - Initializing LogisticsDataProcessor...
2024-06-21 14:56:36.858 [main] INFO  hagrid.App - Starting logistics data processing...
2024-06-21 14:56:36.859 [main] INFO  hagrid.demand.LogisticsDataProcessor - Reading logistics data...
2024-06-21 14:56:36.859 [main] INFO  hagrid.demand.LogisticsDataProcessor - Reading geodata of Hanover Region from folder: phd/input/geodata/Region Hannover.shp
2024-06-21 14:56:36.861 [main] INFO  org.matsim.core.utils.gis.GeoFileReader - will try to read from C:\Users\bienzeisler\Documents\GitHub\HAGRID\phd\input\geodata\Region Hannover.shp
2024-06-21 14:56:38.005 [main] INFO  hagrid.demand.LogisticsDataProcessor - Reading hub data from file: phd/input/hubs/KEP-hubs_v3.csv
2024-06-21 14:56:38.005 [main] INFO  hagrid.demand.LogisticsDataProcessor - Reading data from file: phd/input/hubs/KEP-hubs_v3.csv
2024-06-21 14:56:38.018 [main] INFO  org.matsim.core.network.NetworkImpl - building LinkQuadTree for nodes: xrange(286579.5670514173,953227.577157235); yrange(5242845.444958333,6018233.358636351)
2024-06-21 14:56:38.043 [main] INFO  org.matsim.core.network.NetworkImpl - Building LinkQuadTree took 0.032 seconds.
2024-06-21 14:56:38.053 [main] INFO  hagrid.demand.LogisticsDataProcessor - Read 25 entries from file: phd/input/hubs/KEP-hubs_v3.csv
2024-06-21 14:56:38.055 [main] INFO  hagrid.utils.GeoUtils - Original number of hubs: 25
2024-06-21 14:56:38.058 [main] INFO  hagrid.utils.GeoUtils - Filtering hubs by regions: BARSINGHAUSEN, BURGDORF, BURGWEDEL, GARBSEN, GEHRDEN, HANNOVER, HEMMINGEN, ISERNHAGEN, LAATZEN, LANGENHAGEN, LEHRTE, NEUSTADT, PATTENSEN, RONNENBERG, SEELZE, SEHNDE, SPRINGE, UETZE, WEDEMARK, WENNIGSEN, WUNSTORF
2024-06-21 14:56:38.114 [main] INFO  hagrid.utils.GeoUtils - Filtered number of hubs: 21
2024-06-21 14:56:38.114 [main] INFO  hagrid.utils.GeoUtils - Number of hubs removed: 4
2024-06-21 14:56:38.115 [main] INFO  hagrid.demand.LogisticsDataProcessor - Reading parcel locker data from file: phd/input/hubs/standorte_von_dhl.de.csv
2024-06-21 14:56:38.115 [main] INFO  hagrid.demand.LogisticsDataProcessor - Reading data from file: phd/input/hubs/standorte_von_dhl.de.csv
2024-06-21 14:56:39.324 [main] INFO  hagrid.demand.LogisticsDataProcessor - Read 44 entries from file: phd/input/hubs/standorte_von_dhl.de.csv
2024-06-21 14:56:39.325 [main] INFO  hagrid.demand.LogisticsDataProcessor - Reading shipping point data from folder: phd/input/hubs/standorte_von_paket.net/
2024-06-21 14:56:39.326 [main] INFO  hagrid.demand.LogisticsDataProcessor - Reading data from file: phd/input/hubs/standorte_von_paket.net/dhl_paketnet_list.csv
2024-06-21 14:56:39.451 [main] INFO  hagrid.demand.LogisticsDataProcessor - Read 301 entries from file: phd/input/hubs/standorte_von_paket.net/dhl_paketnet_list.csv
2024-06-21 14:56:39.453 [main] INFO  hagrid.demand.LogisticsDataProcessor - Reading data from file: phd/input/hubs/standorte_von_paket.net/dpd_paketnet_list.csv
2024-06-21 14:56:39.482 [main] INFO  hagrid.demand.LogisticsDataProcessor - Read 95 entries from file: phd/input/hubs/standorte_von_paket.net/dpd_paketnet_list.csv
2024-06-21 14:56:39.482 [main] INFO  hagrid.demand.LogisticsDataProcessor - Reading data from file: phd/input/hubs/standorte_von_paket.net/gls_paketnet_list.csv
2024-06-21 14:56:39.505 [main] INFO  hagrid.demand.LogisticsDataProcessor - Read 92 entries from file: phd/input/hubs/standorte_von_paket.net/gls_paketnet_list.csv
2024-06-21 14:56:39.508 [main] INFO  hagrid.demand.LogisticsDataProcessor - Reading data from file: phd/input/hubs/standorte_von_paket.net/hermes_paketnet_list.csv
2024-06-21 14:56:39.566 [main] INFO  hagrid.demand.LogisticsDataProcessor - Read 199 entries from file: phd/input/hubs/standorte_von_paket.net/hermes_paketnet_list.csv
2024-06-21 14:56:39.568 [main] INFO  hagrid.demand.LogisticsDataProcessor - Reading data from file: phd/input/hubs/standorte_von_paket.net/ups_paketnet_list.csv
2024-06-21 14:56:39.579 [main] INFO  hagrid.demand.LogisticsDataProcessor - Read 52 entries from file: phd/input/hubs/standorte_von_paket.net/ups_paketnet_list.csv
2024-06-21 14:56:39.580 [main] INFO  hagrid.utils.GeoUtils - Original number of hubs: 44
2024-06-21 14:56:39.580 [main] INFO  hagrid.utils.GeoUtils - Filtering hubs by regions: HANNOVER
2024-06-21 14:56:39.607 [main] INFO  hagrid.utils.GeoUtils - Filtered number of hubs: 22
2024-06-21 14:56:39.608 [main] INFO  hagrid.utils.GeoUtils - Number of hubs removed: 22
2024-06-21 14:56:39.608 [main] INFO  hagrid.utils.GeoUtils - Original number of hubs: 739
2024-06-21 14:56:39.610 [main] INFO  hagrid.utils.GeoUtils - Filtering hubs by regions: HANNOVER
2024-06-21 14:56:39.759 [main] INFO  hagrid.utils.GeoUtils - Filtered number of hubs: 363
2024-06-21 14:56:39.759 [main] INFO  hagrid.utils.GeoUtils - Number of hubs removed: 376
2024-06-21 14:56:39.759 [main] INFO  hagrid.demand.LogisticsDataProcessor - Loading carrier vehicle types...
2024-06-21 14:56:39.763 [main] INFO  org.matsim.freight.carriers.CarrierVehicleTypeReader - With early carrier vehicle type file formats, there will be an expected exception in the following.
2024-06-21 14:56:39.764 [main] INFO  org.matsim.core.utils.io.MatsimXmlParser - starting to parse xml from file phd/input/HAGRID_vehicleTypes.xml ...
2024-06-21 14:56:39.765 [main] INFO  org.matsim.core.utils.io.IOUtils - Resolved phd/input/HAGRID_vehicleTypes.xml to phd\input\HAGRID_vehicleTypes.xml
2024-06-21 14:56:39.857 [main] INFO  org.matsim.core.utils.io.MatsimXmlParser - Trying to load http://www.matsim.org/files/dtd/vehicleDefinitions_v2.0.xsd. In some cases (e.g. network interface up but no connection), this may take a bit.
2024-06-21 14:56:39.956 [main] INFO  org.matsim.core.utils.io.MatsimXmlParser - Trying to load http://www.matsim.org/files/dtd/matsimCommon.xsd. In some cases (e.g. network interface up but no connection), this may take a bit.
2024-06-21 14:56:40.059 [main] INFO  org.matsim.core.utils.io.MatsimXmlParser - Trying to load http://www.matsim.org/files/dtd/vehicleDefinitionsEnumTypes.xsd. In some cases (e.g. network interface up but no connection), this may take a bit.
2024-06-21 14:56:40.150 [main] INFO  org.matsim.freight.carriers.CarrierVehicleTypeReader - Using central vehicle parser
2024-06-21 14:56:40.152 [main] INFO  org.matsim.vehicles.MatsimVehicleReader - Found following schemaLocation in vehicle definition file: http://www.matsim.org/files/dtd http://www.matsim.org/files/dtd/vehicleDefinitions_v2.0.xsd
2024-06-21 14:56:40.152 [main] INFO  org.matsim.vehicles.VehicleReaderV2 - Using org.matsim.vehicles.VehicleReaderV2
2024-06-21 14:56:40.169 [main] INFO  hagrid.demand.LogisticsDataProcessor - Logistics data processing completed.
2024-06-21 14:56:40.171 [main] INFO  hagrid.App - Logistics data processing completed.
2024-06-21 14:56:40.173 [main] INFO  hagrid.App - Initializing DemandProcessor...
2024-06-21 14:56:40.176 [main] INFO  hagrid.App - Starting demand data processing...
2024-06-21 14:56:40.178 [main] INFO  hagrid.demand.DemandProcessor - Reading freight demand data from file: T:/bienzeisler/USEfUL-XT/matsim-hanover/01_MATSimModelCreator/vm-hochrechnung_matsim-punkte_epsg25832_mit_plz_v4_b2b.shp
2024-06-21 14:56:40.179 [main] WARN  org.matsim.core.utils.gis.GeoFileReader - Unsafe method! store.dispose() is not called from within this method
2024-06-21 14:56:41.471 [main] INFO  org.matsim.core.utils.gis.GeoFileReader - features to read #46565
2024-06-21 14:56:41.474 [main] INFO  org.matsim.core.utils.misc.Counter - features read #1
2024-06-21 14:56:41.475 [main] INFO  org.matsim.core.utils.misc.Counter - features read #2
2024-06-21 14:56:41.476 [main] INFO  org.matsim.core.utils.misc.Counter - features read #4
2024-06-21 14:56:41.477 [main] INFO  org.matsim.core.utils.misc.Counter - features read #8
2024-06-21 14:56:41.478 [main] INFO  org.matsim.core.utils.misc.Counter - features read #16
2024-06-21 14:56:41.510 [main] INFO  org.matsim.core.utils.misc.Counter - features read #32
2024-06-21 14:56:41.630 [main] INFO  org.matsim.core.utils.misc.Counter - features read #64
2024-06-21 14:56:41.635 [main] INFO  org.matsim.core.utils.misc.Counter - features read #128
2024-06-21 14:56:41.644 [main] INFO  org.matsim.core.utils.misc.Counter - features read #256
2024-06-21 14:56:41.750 [main] INFO  org.matsim.core.utils.misc.Counter - features read #512
2024-06-21 14:56:41.933 [main] INFO  org.matsim.core.utils.misc.Counter - features read #1024
2024-06-21 14:56:42.328 [main] INFO  org.matsim.core.utils.misc.Counter - features read #2048
2024-06-21 14:56:42.844 [main] INFO  org.matsim.core.utils.misc.Counter - features read #4096
2024-06-21 14:56:44.130 [main] INFO  org.matsim.core.utils.misc.Counter - features read #8192
2024-06-21 14:56:46.835 [main] INFO  org.matsim.core.utils.misc.Counter - features read #16384
2024-06-21 14:56:51.993 [main] INFO  org.matsim.core.utils.misc.Counter - features read #32768
2024-06-21 14:56:55.413 [main] INFO  org.matsim.core.utils.misc.Counter - features read #46565
2024-06-21 14:56:55.416 [main] INFO  hagrid.utils.GeoUtils - Original number of freight features: 46565
2024-06-21 14:56:55.417 [main] INFO  hagrid.utils.GeoUtils - Filtering freight features by regions: HANNOVER
2024-06-21 14:56:57.216 [main] INFO  hagrid.utils.GeoUtils - Filtered number of freight features: 12633
2024-06-21 14:56:57.217 [main] INFO  hagrid.utils.GeoUtils - Number of features removed: 33932
2024-06-21 14:56:57.404 [main] INFO  hagrid.demand.DemandProcessor - Total Number of Deliveries: 38349
2024-06-21 14:56:57.405 [main] INFO  hagrid.demand.DemandProcessor - Total Number of Parcels: 84635
2024-06-21 14:56:57.431 [main] INFO  hagrid.demand.DemandProcessor - Demand Border: 600
2024-06-21 14:56:57.433 [main] INFO  hagrid.demand.DemandProcessor - Need for Split: dhl_30419: Number of Deliveries: 838
2024-06-21 14:56:57.438 [main] INFO  hagrid.demand.DemandProcessor - Initializing KMeans clustering with 2 clusters...
2024-06-21 14:56:57.555 [main] INFO  hagrid.demand.DemandProcessor - Cluster 1: 419 features
2024-06-21 14:56:57.556 [main] INFO  hagrid.demand.DemandProcessor - Cluster 2: 419 features
2024-06-21 14:56:57.557 [main] INFO  hagrid.demand.DemandProcessor - Total number of clusters created: 2
2024-06-21 14:56:58.116 [main] INFO  hagrid.demand.DemandProcessor - Chart saved successfully at: phd/output/demand_clustering/ClusterResults_dhl_30419.png
2024-06-21 14:56:58.120 [main] INFO  hagrid.demand.DemandProcessor - Assigned Demand for new Carrier dhl_30419_0: 419
2024-06-21 14:56:58.121 [main] INFO  hagrid.demand.DemandProcessor - Assigned Demand for new Carrier dhl_30419_1: 419
2024-06-21 14:56:58.123 [main] INFO  hagrid.demand.DemandProcessor - Need for Split: dhl_30519: Number of Deliveries: 650
2024-06-21 14:56:58.124 [main] INFO  hagrid.demand.DemandProcessor - Initializing KMeans clustering with 2 clusters...
2024-06-21 14:56:58.133 [main] INFO  hagrid.demand.DemandProcessor - Cluster 1: 325 features
2024-06-21 14:56:58.134 [main] INFO  hagrid.demand.DemandProcessor - Cluster 2: 325 features
2024-06-21 14:56:58.135 [main] INFO  hagrid.demand.DemandProcessor - Total number of clusters created: 2
2024-06-21 14:56:58.346 [main] INFO  hagrid.demand.DemandProcessor - Chart saved successfully at: phd/output/demand_clustering/ClusterResults_dhl_30519.png
2024-06-21 14:56:58.347 [main] INFO  hagrid.demand.DemandProcessor - Assigned Demand for new Carrier dhl_30519_0: 325
[...]
2024-06-21 19:04:13.046 [main] INFO  hagrid.demand.DemandProcessor - Initializing KMeans clustering with 3 clusters...
2024-06-21 19:04:13.051 [main] INFO  hagrid.demand.DemandProcessor - Cluster 1: 436 features
2024-06-21 19:04:13.051 [main] INFO  hagrid.demand.DemandProcessor - Cluster 2: 436 features
2024-06-21 19:04:13.053 [main] INFO  hagrid.demand.DemandProcessor - Cluster 3: 436 features
2024-06-21 19:04:13.053 [main] INFO  hagrid.demand.DemandProcessor - Total number of clusters created: 3
2024-06-21 19:04:13.149 [main] INFO  hagrid.demand.DemandProcessor - Chart saved successfully at: phd/output/demand_clustering/ClusterResults_dhl_30900.png
2024-06-21 19:04:13.149 [main] INFO  hagrid.demand.DemandProcessor - Assigned Demand for new Carrier dhl_30900_0: 436
2024-06-21 19:04:13.150 [main] INFO  hagrid.demand.DemandProcessor - Assigned Demand for new Carrier dhl_30900_1: 436
2024-06-21 19:04:13.150 [main] INFO  hagrid.demand.DemandProcessor - Assigned Demand for new Carrier dhl_30900_2: 436
2024-06-21 19:04:13.151 [main] INFO  hagrid.demand.DemandProcessor - Need for Split: dhl_31319: Number of Deliveries: 945
2024-06-21 19:04:13.151 [main] INFO  hagrid.demand.DemandProcessor - Initializing KMeans clustering with 2 clusters...
2024-06-21 19:04:13.154 [main] INFO  hagrid.demand.DemandProcessor - Cluster 1: 472 features
2024-06-21 19:04:13.155 [main] INFO  hagrid.demand.DemandProcessor - Cluster 2: 473 features
2024-06-21 19:04:13.155 [main] INFO  hagrid.demand.DemandProcessor - Total number of clusters created: 2
2024-06-21 19:04:13.243 [main] INFO  hagrid.demand.DemandProcessor - Chart saved successfully at: phd/output/demand_clustering/ClusterResults_dhl_31319.png
2024-06-21 19:04:13.244 [main] INFO  hagrid.demand.DemandProcessor - Assigned Demand for new Carrier dhl_31319_0: 472
2024-06-21 19:04:13.244 [main] INFO  hagrid.demand.DemandProcessor - Assigned Demand for new Carrier dhl_31319_1: 473
2024-06-21 19:04:13.284 [main] INFO  hagrid.demand.DemandProcessor - Total Number of Deliveries: 105984
2024-06-21 19:04:13.286 [main] INFO  hagrid.demand.DemandProcessor - Total Number of Parcels: 196885
2024-06-21 19:04:13.286 [main] INFO  hagrid.demand.DemandProcessor - Validation completed successfully: Total number of deliveries and parcels match.
2024-06-21 19:04:13.286 [main] INFO  hagrid.demand.DemandProcessor - Freight demand data processing completed.
2024-06-21 19:04:13.287 [main] INFO  hagrid.App - Demand data processing completed.
2024-06-21 19:04:13.287 [main] INFO  hagrid.App - Initializing DeliveryGenerator...
2024-06-21 19:04:13.288 [main] INFO  hagrid.App - Starting delivery generation based on sorted Demand...
2024-06-21 19:04:13.288 [main] INFO  hagrid.demand.DeliveryGenerator - Generating parcels from sorted carrier demand...
2024-06-21 19:04:13.290 [main] INFO  hagrid.demand.DeliveryGenerator - Total Parcels from carrier demand: 105984
2024-06-21 19:04:13.535 [main] INFO  hagrid.utils.general.ParcelStatisticsLogger - === Overall Summary ===
  Total Deliveries      : 106.028
  Total B2B Deliveries  : 19.188
  Total Parcels         : 197.985
  Total B2B Parcels     : 47.252
  B2B Delivery Ratio    : 18,10%
  B2B Parcel Ratio      : 23,87%
  Average Weight        : 4,91
  Average B2B Weight    : 9,21
  Total Locker Deliveries: 44
  Total Locker Parcels: 1.100
  Locker Delivery Ratio : 0,04%
  Locker Parcel Ratio : 0,56%

2024-06-21 19:04:13.536 [main] INFO  hagrid.demand.DeliveryGenerator - Parcel generation completed.
2024-06-21 19:04:13.537 [main] INFO  hagrid.App - Delivery and parcel generation completed.
2024-06-21 19:04:13.537 [main] INFO  hagrid.App - Initializing CarrierGenerator...
2024-06-21 19:04:13.538 [main] INFO  hagrid.App - Starting carrier generation based on sorted demand...
2024-06-21 19:04:13.538 [main] INFO  hagrid.demand.CarrierGenerator - Generating carriers from sorted deliveries and parcels...
2024-06-21 19:04:13.538 [main] INFO  hagrid.demand.CarrierGenerator - Getting scenario elements...
2024-06-21 19:04:13.539 [main] INFO  hagrid.demand.CarrierGenerator - Scenario elements retrieved.
2024-06-21 19:04:13.552 [main] INFO  org.matsim.core.network.NetworkImpl - building LinkQuadTree for nodes: xrange(288335.4442501353,953227.577157235); yrange(5242845.444958333,6003702.4934690865)
2024-06-21 19:04:13.572 [main] INFO  org.matsim.core.network.NetworkImpl - Building LinkQuadTree took 0.024 seconds.
2024-06-21 19:04:14.869 [main] INFO  hagrid.demand.CarrierGenerator - Carrier with the most services: amazon_30855 with 598 services
2024-06-21 19:04:14.870 [main] INFO  hagrid.demand.CarrierGenerator - Carrier with the least services: hermes_30938 with 61 services
2024-06-21 19:04:14.871 [main] INFO  hagrid.demand.CarrierGenerator - Number of carriers with fewer than 5 services: 0
2024-06-21 19:04:14.871 [main] INFO  hagrid.demand.CarrierGenerator - Carriers with insufficient services: []
2024-06-21 19:04:14.871 [main] INFO  hagrid.demand.CarrierGenerator - Number of remaining carriers: 389
2024-06-21 19:04:14.872 [main] INFO  hagrid.demand.CarrierGenerator - Carriers generated: 389
2024-06-21 19:04:14.872 [main] INFO  hagrid.demand.CarrierGenerator - Validating carrier missed deliveries...
2024-06-21 19:04:14.873 [main] INFO  hagrid.demand.CarrierGenerator - Validation passed for all carriers and their missed parcel deliveries.
2024-06-21 19:04:14.873 [main] INFO  hagrid.demand.CarrierGenerator - Validation of carrier missed deliveries completed.
2024-06-21 19:04:14.873 [main] INFO  hagrid.demand.CarrierGenerator - Validating carrier services...
2024-06-21 19:04:14.939 [main] INFO  hagrid.demand.CarrierGenerator - Correction factor for Delivery Size Adjustment: 1
2024-06-21 19:04:15.074 [main] INFO  hagrid.demand.CarrierGenerator - Missed parcels for provider amazon: average rate 95,04%
2024-06-21 19:04:15.074 [main] INFO  hagrid.demand.CarrierGenerator - Expected rate for provider amazon: 95,00%
2024-06-21 19:04:15.075 [main] INFO  hagrid.demand.CarrierGenerator - Missed parcels for provider fedex: average rate 92,12%
2024-06-21 19:04:15.075 [main] INFO  hagrid.demand.CarrierGenerator - Expected rate for provider fedex: 92,00%
2024-06-21 19:04:15.075 [main] INFO  hagrid.demand.CarrierGenerator - Missed parcels for provider ups: average rate 91,68%
2024-06-21 19:04:15.075 [main] INFO  hagrid.demand.CarrierGenerator - Expected rate for provider ups: 92,00%
2024-06-21 19:04:15.076 [main] INFO  hagrid.demand.CarrierGenerator - Missed parcels for provider dpd: average rate 91,65%
2024-06-21 19:04:15.076 [main] INFO  hagrid.demand.CarrierGenerator - Expected rate for provider dpd: 92,00%
2024-06-21 19:04:15.076 [main] INFO  hagrid.demand.CarrierGenerator - Missed parcels for provider dhl: average rate 95,35%
2024-06-21 19:04:15.076 [main] INFO  hagrid.demand.CarrierGenerator - Expected rate for provider dhl: 96,00%
2024-06-21 19:04:15.076 [main] INFO  hagrid.demand.CarrierGenerator - Missed parcels for provider hermes: average rate 93,68%
2024-06-21 19:04:15.076 [main] INFO  hagrid.demand.CarrierGenerator - Expected rate for provider hermes: 93,00%
2024-06-21 19:04:15.076 [main] INFO  hagrid.demand.CarrierGenerator - Missed parcels for provider gls: average rate 93,58%
2024-06-21 19:04:15.077 [main] INFO  hagrid.demand.CarrierGenerator - Expected rate for provider gls: 93,00%
2024-06-21 19:04:15.199 [main] INFO  hagrid.demand.CarrierGenerator - === Delivery Statistics by Provider ===
Provider: amazon
  Total Services     : 12.592
  B2B Services       : 283
  Total Parcels      : 18.401
  B2B Parcels        : 532
  B2B Service Ratio  : 2,25%
  B2B Parcel Ratio   : 2,89%
  Total Weight       : 72920,51
  Total B2B Weight   : 5087,17
  Average Weight     : 3,96
  Average B2B Weight : 9,56

Provider: fedex
  Total Services     : 9.911
  B2B Services       : 2.115
  Total Parcels      : 13.225
  B2B Parcels        : 3.415
  B2B Service Ratio  : 21,34%
  B2B Parcel Ratio   : 25,82%
  Total Weight       : 69828,08
  Total B2B Weight   : 31497,62
  Average Weight     : 5,28
  Average B2B Weight : 9,22

Provider: ups
  Total Services     : 16.314
  B2B Services       : 3.286
  Total Parcels      : 26.491
  B2B Parcels        : 6.854
  B2B Service Ratio  : 20,14%
  B2B Parcel Ratio   : 25,87%
  Total Weight       : 141225,47
  Total B2B Weight   : 65550,18
  Average Weight     : 5,33
  Average B2B Weight : 9,56

Provider: dpd
  Total Services     : 14.390
  B2B Services       : 3.027
  Total Parcels      : 22.122
  B2B Parcels        : 5.919
  B2B Service Ratio  : 21,04%
  B2B Parcel Ratio   : 26,76%
  Total Weight       : 118515,45
  Total B2B Weight   : 55801,39
  Average Weight     : 5,36
  Average B2B Weight : 9,43

Provider: dhl
  Total Services     : 31.058
  B2B Services       : 5.879
  Total Parcels      : 87.462
  B2B Parcels        : 22.822
  B2B Service Ratio  : 18,93%
  B2B Parcel Ratio   : 26,09%
  Total Weight       : 459791,58
  Total B2B Weight   : 213516,81
  Average Weight     : 5,26
  Average B2B Weight : 9,36

Provider: hermes
  Total Services     : 9.570
  B2B Services       : 2.091
  Total Parcels      : 12.603
  B2B Parcels        : 3.160
  B2B Service Ratio  : 21,85%
  B2B Parcel Ratio   : 25,07%
  Total Weight       : 66236,77
  Total B2B Weight   : 29772,15
  Average Weight     : 5,26
  Average B2B Weight : 9,42

Provider: gls
  Total Services     : 12.194
  B2B Services       : 2.508
  Total Parcels      : 17.681
  B2B Parcels        : 4.550
  B2B Service Ratio  : 20,57%
  B2B Parcel Ratio   : 25,73%
  Total Weight       : 93893,53
  Total B2B Weight   : 43467,77
  Average Weight     : 5,31
  Average B2B Weight : 9,55

=== Total Statistics ===
Total Services     : 106.029
Total B2B Services : 19.189
Total Parcels      : 197.985
Total B2B Parcels  : 47.252
Total Weight       : 1022411,39
Total B2B Weight   : 444693,09
Average Weight     : 5,16
Average B2B Weight : 9,41

2024-06-21 19:04:15.205 [main] INFO  hagrid.demand.CarrierGenerator - Validation passed: All carrier services match the original deliveries summary.
2024-06-21 19:04:15.205 [main] INFO  hagrid.demand.CarrierGenerator - Total deliveries match: 106028.
2024-06-21 19:04:15.205 [main] INFO  hagrid.demand.CarrierGenerator - Total parcels match: 197985.
2024-06-21 19:04:15.206 [main] INFO  hagrid.demand.CarrierGenerator - Total B2B deliveries match: 19188.
2024-06-21 19:04:15.206 [main] INFO  hagrid.demand.CarrierGenerator - Total B2B parcels match: 47252.
2024-06-21 19:04:15.206 [main] INFO  hagrid.demand.CarrierGenerator - Validation of carrier completed.
2024-06-21 19:04:15.206 [main] INFO  hagrid.demand.CarrierGenerator - Starting validation of supply demand...
2024-06-21 19:04:15.213 [main] INFO  hagrid.demand.CarrierGenerator - Hub ID: dhl_hannover_sued, Assigned Supply Demand: 12027
2024-06-21 19:04:15.215 [main] INFO  hagrid.demand.CarrierGenerator - Hub ID: dp/dhl_burgdorf, Assigned Supply Demand: 3946
2024-06-21 19:04:15.215 [main] INFO  hagrid.demand.CarrierGenerator - Hub ID: dhl_hannover_gueterbahnhof, Assigned Supply Demand: 26150
2024-06-21 19:04:15.215 [main] INFO  hagrid.demand.CarrierGenerator - Hub ID: dpd_lehrte, Assigned Supply Demand: 22122
2024-06-21 19:04:15.215 [main] INFO  hagrid.demand.CarrierGenerator - Hub ID: dhl_pattensen, Assigned Supply Demand: 4634
2024-06-21 19:04:15.215 [main] INFO  hagrid.demand.CarrierGenerator - Hub ID: gls_laatzen, Assigned Supply Demand: 17681
2024-06-21 19:04:15.216 [main] INFO  hagrid.demand.CarrierGenerator - Hub ID: dp/dhl_springe, Assigned Supply Demand: 2086
2024-06-21 19:04:15.216 [main] INFO  hagrid.demand.CarrierGenerator - Hub ID: dp/dhl_garbsen, Assigned Supply Demand: 3474
2024-06-21 19:04:15.216 [main] INFO  hagrid.demand.CarrierGenerator - Hub ID: dp/dhl_seelze, Assigned Supply Demand: 3158
2024-06-21 19:04:15.217 [main] INFO  hagrid.demand.CarrierGenerator - Hub ID: hermes_langenhagen, Assigned Supply Demand: 12603
2024-06-21 19:04:15.217 [main] INFO  hagrid.demand.CarrierGenerator - Hub ID: dp/dhl_wunstorf, Assigned Supply Demand: 4299
2024-06-21 19:04:15.217 [main] INFO  hagrid.demand.CarrierGenerator - Hub ID: dp/dhl_wedemark, Assigned Supply Demand: 7692
2024-06-21 19:04:15.218 [main] INFO  hagrid.demand.CarrierGenerator - Hub ID: dp/dhl_uetze, Assigned Supply Demand: 1468
2024-06-21 19:04:15.218 [main] INFO  hagrid.demand.CarrierGenerator - Hub ID: dp/dhl_lehrte, Assigned Supply Demand: 3157
2024-06-21 19:04:15.219 [main] INFO  hagrid.demand.CarrierGenerator - Hub ID: dp/dhl_neustadt_am_ruebenberge, Assigned Supply Demand: 3191
2024-06-21 19:04:15.219 [main] INFO  hagrid.demand.CarrierGenerator - Hub ID: dhl_hannover_anderten, Assigned Supply Demand: 7838
2024-06-21 19:04:15.220 [main] INFO  hagrid.demand.CarrierGenerator - Hub ID: amazon_garbsen, Assigned Supply Demand: 18401
2024-06-21 19:04:15.222 [main] INFO  hagrid.demand.CarrierGenerator - Hub ID: fedex_hannover, Assigned Supply Demand: 13225
2024-06-21 19:04:15.222 [main] INFO  hagrid.demand.CarrierGenerator - Hub ID: ups_hannover, Assigned Supply Demand: 26491
2024-06-21 19:04:15.222 [main] INFO  hagrid.demand.CarrierGenerator - Hub ID: dp/dhl_wennigsen, Assigned Supply Demand: 3487
2024-06-21 19:04:15.223 [main] INFO  hagrid.demand.CarrierGenerator - Hub ID: dp/dhl_sehnde, Assigned Supply Demand: 855
2024-06-21 19:04:15.223 [main] INFO  hagrid.demand.CarrierGenerator - Total Parcels: 197985, Total Assigned Supply Demand: 197985
2024-06-21 19:04:15.223 [main] INFO  hagrid.demand.CarrierGenerator - Validation successful: Total parcels match total assigned supply demand.
2024-06-21 19:04:15.224 [main] INFO  hagrid.utils.general.HAGRIDUtils - Starting to check and log carrier attributes
2024-06-21 19:04:15.518 [main] INFO  hagrid.demand.CarrierGenerator - Carrier generation completed.
2024-06-21 19:04:15.521 [main] INFO  org.matsim.freight.carriers.CarrierPlanXmlWriterV2_1 - write carrier plans
2024-06-21 19:04:15.530 [main] WARN  org.matsim.utils.objectattributes.ObjectAttributesConverter - No AttributeConverter found for class hagrid.utils.demand.Hub. Not all attribute values can be converted.
2024-06-21 19:04:16.289 [main] INFO  org.matsim.freight.carriers.CarrierPlanXmlWriterV2_1 - done
2024-06-21 19:04:16.289 [main] INFO  hagrid.App - Carrier generation completed.
2024-06-21 19:04:16.289 [main] INFO  hagrid.App - Initializing SupplyCarrierGenerator...
2024-06-21 19:04:16.293 [main] INFO  hagrid.App - Starting supply carrier generation based on generated carriers...
2024-06-21 19:04:16.294 [main] INFO  hagrid.demand.SupplyCarrierGenerator - Starting supply carrier generation...
2024-06-21 19:04:16.294 [main] INFO  hagrid.demand.SupplyCarrierGenerator - Retrieved 389 carriers from the scenario.
2024-06-21 19:04:16.294 [main] INFO  hagrid.demand.SupplyCarrierGenerator - Retrieved 21 hubs and 12 vehicle types from the scenario.
2024-06-21 19:04:16.299 [main] INFO  hagrid.demand.SupplyCarrierGenerator - Created supply carrier from hub dhl_hannover_anderten with 0 parcels
2024-06-21 19:04:16.300 [main] INFO  hagrid.demand.SupplyCarrierGenerator - Created supply carrier for hub dpd_lehrte with 44244 parcels
2024-06-21 19:04:16.301 [main] INFO  hagrid.demand.SupplyCarrierGenerator - Created supply carrier for hub gls_laatzen with 35362 parcels
2024-06-21 19:04:16.301 [main] INFO  hagrid.demand.SupplyCarrierGenerator - Created supply carrier for hub hermes_langenhagen with 25206 parcels
2024-06-21 19:04:16.301 [main] INFO  hagrid.demand.SupplyCarrierGenerator - Created supply carrier for hub amazon_garbsen with 36802 parcels
2024-06-21 19:04:16.301 [main] INFO  hagrid.demand.SupplyCarrierGenerator - Created supply carrier for hub fedex_hannover with 26450 parcels
2024-06-21 19:04:16.302 [main] INFO  hagrid.demand.SupplyCarrierGenerator - Created supply carrier for hub ups_hannover with 52982 parcels
2024-06-21 19:04:16.302 [main] INFO  hagrid.demand.SupplyCarrierGenerator - Created final supply carrier for delivery to DHL Anderten hub with 174924 parcels and 88 services
2024-06-21 19:04:16.303 [main] INFO  hagrid.demand.SupplyCarrierGenerator - Hub dhl_hannover_sued: Assigned Demand = 24054, Carrier Demand = 76354
2024-06-21 19:04:16.304 [main] INFO  hagrid.demand.SupplyCarrierGenerator - Hub dp/dhl_burgdorf: Assigned Demand = 7892, Carrier Demand = 7892
2024-06-21 19:04:16.304 [main] INFO  hagrid.demand.SupplyCarrierGenerator - Hub dhl_hannover_gueterbahnhof: Assigned Demand = 52300, Carrier Demand = 76354
2024-06-21 19:04:16.306 [main] INFO  hagrid.demand.SupplyCarrierGenerator - Hub dpd_lehrte: Assigned Demand = 44244, Carrier Demand = 225482
2024-06-21 19:04:16.306 [main] INFO  hagrid.demand.SupplyCarrierGenerator - Hub dhl_pattensen: Assigned Demand = 9268, Carrier Demand = 44630
2024-06-21 19:04:16.306 [main] INFO  hagrid.demand.SupplyCarrierGenerator - Hub gls_laatzen: Assigned Demand = 35362, Carrier Demand = 44630
2024-06-21 19:04:16.307 [main] INFO  hagrid.demand.SupplyCarrierGenerator - Hub dp/dhl_springe: Assigned Demand = 4172, Carrier Demand = 4172
2024-06-21 19:04:16.307 [main] INFO  hagrid.demand.SupplyCarrierGenerator - Hub dp/dhl_garbsen: Assigned Demand = 6948, Carrier Demand = 13330
2024-06-21 19:04:16.307 [main] INFO  hagrid.demand.SupplyCarrierGenerator - Hub dp/dhl_seelze: Assigned Demand = 6316, Carrier Demand = 6316
2024-06-21 19:04:16.308 [main] INFO  hagrid.demand.SupplyCarrierGenerator - Hub hermes_langenhagen: Assigned Demand = 25206, Carrier Demand = 25206
2024-06-21 19:04:16.308 [main] INFO  hagrid.demand.SupplyCarrierGenerator - Hub dp/dhl_wunstorf: Assigned Demand = 8598, Carrier Demand = 8598
2024-06-21 19:04:16.308 [main] INFO  hagrid.demand.SupplyCarrierGenerator - Hub dp/dhl_wedemark: Assigned Demand = 15384, Carrier Demand = 15384
2024-06-21 19:04:16.308 [main] INFO  hagrid.demand.SupplyCarrierGenerator - Hub dp/dhl_uetze: Assigned Demand = 2936, Carrier Demand = 2936
2024-06-21 19:04:16.309 [main] INFO  hagrid.demand.SupplyCarrierGenerator - Hub dp/dhl_lehrte: Assigned Demand = 6314, Carrier Demand = 225482
2024-06-21 19:04:16.309 [main] INFO  hagrid.demand.SupplyCarrierGenerator - Hub dp/dhl_neustadt_am_ruebenberge: Assigned Demand = 6382, Carrier Demand = 13330
2024-06-21 19:04:16.309 [main] INFO  hagrid.demand.SupplyCarrierGenerator - Hub dhl_hannover_anderten: Assigned Demand = 15676, Carrier Demand = 225482
2024-06-21 19:04:16.309 [main] INFO  hagrid.demand.SupplyCarrierGenerator - Hub amazon_garbsen: Assigned Demand = 36802, Carrier Demand = 36802
2024-06-21 19:04:16.310 [main] INFO  hagrid.demand.SupplyCarrierGenerator - Hub fedex_hannover: Assigned Demand = 26450, Carrier Demand = 26450
2024-06-21 19:04:16.310 [main] INFO  hagrid.demand.SupplyCarrierGenerator - Hub ups_hannover: Assigned Demand = 52982, Carrier Demand = 52982
2024-06-21 19:04:16.310 [main] INFO  hagrid.demand.SupplyCarrierGenerator - Hub dp/dhl_wennigsen: Assigned Demand = 6974, Carrier Demand = 6974
2024-06-21 19:04:16.310 [main] INFO  hagrid.demand.SupplyCarrierGenerator - Hub dp/dhl_sehnde: Assigned Demand = 1710, Carrier Demand = 1710
2024-06-21 19:04:16.310 [main] ERROR hagrid.demand.SupplyCarrierGenerator - Validation failed: Total assigned supply demand (236722) does not match total carrier demand (555218)
2024-06-21 19:04:16.310 [main] ERROR hagrid.demand.SupplyCarrierGenerator - Error generating supply carriers
hagrid.demand.SupplyCarrierGenerator$SupplyCarrierValidationException: Validation failed: Total assigned supply demand (236722) does not match total carrier demand (555218)
	at hagrid.demand.SupplyCarrierGenerator.validateSupplyCarriers(SupplyCarrierGenerator.java:343) ~[classes/:?]
	at hagrid.demand.SupplyCarrierGenerator.run(SupplyCarrierGenerator.java:61) [classes/:?]
	at hagrid.App.runSupplyGeneration(App.java:131) [classes/:?]
	at hagrid.App.main(App.java:30) [classes/:?]
2024-06-21 19:04:16.318 [main] INFO  hagrid.App - Supply carrier generation completed.
2024-06-21 19:04:16.318 [main] INFO  hagrid.App - Application finished.
