2024-05-28 15:54:07.722 [main] INFO  hagrid.App - Starting application...
2024-05-28 15:54:07.820 [main] INFO  org.matsim.core.utils.io.IOUtils - Resolved phd/input/config.xml to phd\input\config.xml
2024-05-28 15:54:07.824 [main] INFO  org.matsim.core.config.Config - setting context to [file:/C:/Users/bienzeisler/Documents/GitHub/HAGRID/]
2024-05-28 15:54:07.897 [main] INFO  org.hibernate.validator.internal.util.Version - HV000001: Hibernate Validator 7.0.1.Final
2024-05-28 15:54:08.036 [main] INFO  org.matsim.core.utils.io.MatsimXmlParser - starting to parse xml from url file:/C:/Users/bienzeisler/Documents/GitHub/HAGRID/phd/input/config.xml ...
2024-05-28 15:54:08.075 [main] INFO  org.matsim.core.config.ConfigReader - using config_v2-reader
2024-05-28 15:54:08.078 [main] INFO  org.matsim.core.utils.io.MatsimXmlParser - Trying to load http://www.matsim.org/files/dtd/config_v2.dtd. In some cases (e.g. network interface up but no connection), this may take a bit.
2024-05-28 15:54:08.142 [main] INFO  org.matsim.core.config.groups.GlobalConfigGroup - setting number of threads to: 2
2024-05-28 15:54:08.160 [main] WARN  org.matsim.core.config.groups.ScoringConfigGroup - Setting pathSizeLogitBeta different from zero is experimental.  KN, Sep'08
2024-05-28 15:54:08.173 [main] INFO  org.matsim.core.config.groups.ScoringConfigGroup - scoring parameters for subpopulation null were just replaced.
2024-05-28 15:54:08.177 [main] WARN  org.matsim.core.config.groups.RoutingConfigGroup - The first mode routing (= teleported mode) params that are explicitly defined clear the default mode routing (= teleported mode) params.  If you want to avoid this 
2024-05-28 15:54:08.178 [main] WARN  org.matsim.core.config.groups.RoutingConfigGroup -     warning, use clearTeleportedModeParams(true) in code, and "clearDefaultTeleportedModeParams"=true in xml config.
2024-05-28 15:54:08.191 [main] INFO  org.matsim.core.config.Config - setting context to [file:/C:/Users/bienzeisler/Documents/GitHub/HAGRID/phd/input/config.xml]
2024-05-28 15:54:08.212 [main] INFO  org.matsim.core.scenario.ScenarioLoaderImpl - no facilities file set in config, therefore not loading any facilities.  This is not a problem except if you are using facilities
2024-05-28 15:54:08.213 [main] INFO  org.matsim.core.scenario.ScenarioLoaderImpl - no facility-attributes file set in config, not loading any facility attributes
2024-05-28 15:54:08.214 [main] INFO  org.matsim.core.scenario.ScenarioLoaderImpl - no population file set in config, not able to load population
2024-05-28 15:54:08.214 [main] INFO  org.matsim.core.scenario.ScenarioLoaderImpl - no person-attributes file set in config, not loading any person attributes
2024-05-28 15:54:08.214 [main] INFO  org.matsim.core.scenario.ScenarioLoaderImpl - no households file set in config, not loading households
2024-05-28 15:54:08.215 [main] INFO  org.matsim.core.scenario.ScenarioLoaderImpl - no transit schedule file set in config, not loading any transit schedule
2024-05-28 15:54:08.215 [main] INFO  org.matsim.core.scenario.ScenarioLoaderImpl - no transit vehicles file set in config, not loading any transit vehicles
2024-05-28 15:54:08.312 [main] INFO  hagrid.App - Initializing NetworkProcessor...
2024-05-28 15:54:08.327 [main] INFO  hagrid.App - Starting network processing...
2024-05-28 15:54:08.327 [main] INFO  hagrid.demand.NetworkProcessor - Starting network processing...
2024-05-28 15:54:08.336 [main] INFO  hagrid.demand.NetworkProcessor - Reading the network file from path: phd/input/reduced_network.xml.gz
2024-05-28 15:54:08.339 [main] INFO  org.matsim.core.utils.io.MatsimXmlParser - starting to parse xml from file phd/input/reduced_network.xml.gz ...
2024-05-28 15:54:08.339 [main] INFO  org.matsim.core.utils.io.IOUtils - Resolved phd/input/reduced_network.xml.gz to phd\input\reduced_network.xml.gz
2024-05-28 15:54:08.460 [main] INFO  org.matsim.core.network.io.MatsimNetworkReader - using network_v2-reader.
2024-05-28 15:54:08.460 [main] INFO  org.matsim.core.utils.io.MatsimXmlParser - Trying to load http://www.matsim.org/files/dtd/network_v2.dtd. In some cases (e.g. network interface up but no connection), this may take a bit.
2024-05-28 15:54:08.495 [main] INFO  org.matsim.core.network.NetworkImpl -  node # 1
2024-05-28 15:54:08.496 [main] INFO  org.matsim.core.network.NetworkImpl -  node # 4
2024-05-28 15:54:08.497 [main] INFO  org.matsim.core.network.NetworkImpl -  node # 16
2024-05-28 15:54:08.497 [main] INFO  org.matsim.core.network.NetworkImpl -  node # 64
2024-05-28 15:54:08.507 [main] INFO  org.matsim.core.network.NetworkImpl -  node # 256
2024-05-28 15:54:08.532 [main] INFO  org.matsim.core.network.NetworkImpl -  node # 1024
2024-05-28 15:54:08.562 [main] INFO  org.matsim.core.network.NetworkImpl -  node # 4096
2024-05-28 15:54:08.646 [main] INFO  org.matsim.core.network.NetworkImpl -  node # 16384
2024-05-28 15:54:08.656 [main] INFO  org.matsim.core.network.NetworkImpl -  link # 1
2024-05-28 15:54:08.659 [main] INFO  org.matsim.core.network.NetworkImpl -  link # 4
2024-05-28 15:54:08.662 [main] INFO  org.matsim.core.network.NetworkImpl -  link # 16
2024-05-28 15:54:08.672 [main] INFO  org.matsim.core.network.NetworkImpl -  link # 64
2024-05-28 15:54:08.693 [main] INFO  org.matsim.core.network.NetworkImpl -  link # 256
2024-05-28 15:54:08.740 [main] INFO  org.matsim.core.network.NetworkImpl -  link # 1024
2024-05-28 15:54:08.743 [main] WARN  org.matsim.api.core.v01.network.Link - length=0.0 of link id 1185132 may cause problems
2024-05-28 15:54:08.749 [main] WARN  org.matsim.api.core.v01.network.Link -  Future occurences of this logging statement are suppressed.
2024-05-28 15:54:08.899 [main] INFO  org.matsim.core.network.NetworkImpl -  link # 4096
2024-05-28 15:54:09.432 [main] INFO  org.matsim.core.network.NetworkImpl -  link # 16384
2024-05-28 15:54:09.553 [main] INFO  hagrid.demand.NetworkProcessor - Adjusting link lengths and free speeds...
2024-05-28 15:54:09.555 [main] INFO  hagrid.demand.NetworkProcessor - Link adjustments completed.
2024-05-28 15:54:09.555 [main] INFO  hagrid.demand.NetworkProcessor - Filtering network to include only car mode links...
2024-05-28 15:54:09.567 [main] INFO  org.matsim.core.config.Config - setting context to [file:/C:/Users/bienzeisler/Documents/GitHub/HAGRID/]
2024-05-28 15:54:09.576 [main] INFO  org.matsim.core.network.NetworkImpl -  node # 1
2024-05-28 15:54:09.576 [main] INFO  org.matsim.core.network.NetworkImpl -  node # 4
2024-05-28 15:54:09.580 [main] INFO  org.matsim.core.network.NetworkImpl -  node # 16
2024-05-28 15:54:09.580 [main] INFO  org.matsim.core.network.NetworkImpl -  node # 64
2024-05-28 15:54:09.580 [main] INFO  org.matsim.core.network.NetworkImpl -  node # 256
2024-05-28 15:54:09.584 [main] INFO  org.matsim.core.network.NetworkImpl -  node # 1024
2024-05-28 15:54:09.590 [main] INFO  org.matsim.core.network.NetworkImpl -  node # 4096
2024-05-28 15:54:09.606 [main] INFO  org.matsim.core.network.NetworkImpl -  node # 16384
2024-05-28 15:54:09.614 [main] INFO  org.matsim.core.network.NetworkImpl -  link # 1
2024-05-28 15:54:09.617 [main] INFO  org.matsim.core.network.NetworkImpl -  link # 4
2024-05-28 15:54:09.622 [main] INFO  org.matsim.core.network.NetworkImpl -  link # 16
2024-05-28 15:54:09.624 [main] INFO  org.matsim.core.network.NetworkImpl -  link # 64
2024-05-28 15:54:09.629 [main] INFO  org.matsim.core.network.NetworkImpl -  link # 256
2024-05-28 15:54:09.647 [main] INFO  org.matsim.core.network.NetworkImpl -  link # 1024
2024-05-28 15:54:09.693 [main] INFO  org.matsim.core.network.NetworkImpl -  link # 4096
2024-05-28 15:54:09.852 [main] INFO  org.matsim.core.network.NetworkImpl -  link # 16384
2024-05-28 15:54:09.908 [main] INFO  hagrid.demand.NetworkProcessor - Car mode network filtering completed.
2024-05-28 15:54:09.909 [main] INFO  hagrid.demand.NetworkProcessor - Creating parcel service network based on custom criteria...
2024-05-28 15:54:09.911 [main] INFO  org.matsim.core.config.Config - setting context to [file:/C:/Users/bienzeisler/Documents/GitHub/HAGRID/]
2024-05-28 15:54:09.919 [main] INFO  org.matsim.core.network.NetworkImpl -  node # 1
2024-05-28 15:54:09.920 [main] INFO  org.matsim.core.network.NetworkImpl -  node # 4
2024-05-28 15:54:09.921 [main] INFO  org.matsim.core.network.NetworkImpl -  node # 16
2024-05-28 15:54:09.922 [main] INFO  org.matsim.core.network.NetworkImpl -  node # 64
2024-05-28 15:54:09.925 [main] INFO  org.matsim.core.network.NetworkImpl -  node # 256
2024-05-28 15:54:09.925 [main] INFO  org.matsim.core.network.NetworkImpl -  node # 1024
2024-05-28 15:54:09.925 [main] INFO  org.matsim.core.network.NetworkImpl -  node # 4096
2024-05-28 15:54:09.934 [main] INFO  hagrid.demand.NetworkProcessor - Total number of links in the carFilteredNetwork: 19063
2024-05-28 15:54:09.935 [main] INFO  org.matsim.core.network.NetworkImpl -  link # 1
2024-05-28 15:54:09.936 [main] INFO  org.matsim.core.network.NetworkImpl -  link # 4
2024-05-28 15:54:09.936 [main] INFO  org.matsim.core.network.NetworkImpl -  link # 16
2024-05-28 15:54:09.938 [main] INFO  org.matsim.core.network.NetworkImpl -  link # 64
2024-05-28 15:54:09.939 [main] INFO  org.matsim.core.network.NetworkImpl -  link # 256
2024-05-28 15:54:09.943 [main] INFO  org.matsim.core.network.NetworkImpl -  link # 1024
2024-05-28 15:54:09.952 [main] INFO  org.matsim.core.network.NetworkImpl -  link # 4096
2024-05-28 15:54:09.985 [main] INFO  org.matsim.core.network.NetworkImpl -  link # 16384
2024-05-28 15:54:09.991 [main] INFO  hagrid.demand.NetworkProcessor - Parcel service network created successfully with 18730 links added.
2024-05-28 15:54:09.991 [main] INFO  hagrid.demand.NetworkProcessor - Difference in number of links between carFilteredNetwork and parcel service network: 333
2024-05-28 15:54:09.991 [main] INFO  hagrid.App - Network processing completed. Subnetworks created.
2024-05-28 15:54:09.991 [main] INFO  hagrid.App - Initializing LogisticsDataProcessor...
2024-05-28 15:54:10.008 [main] INFO  hagrid.App - Starting logistics data processing...
2024-05-28 15:54:10.009 [main] INFO  hagrid.demand.LogisticsDataProcessor - Reading logistics data...
2024-05-28 15:54:10.011 [main] INFO  hagrid.demand.LogisticsDataProcessor - Reading hub data from file: phd/input/hubs/KEP-hubs_v3.csv
2024-05-28 15:54:10.012 [main] INFO  hagrid.demand.LogisticsDataProcessor - Reading data from file: phd/input/hubs/KEP-hubs_v3.csv
2024-05-28 15:54:10.045 [main] INFO  org.matsim.core.network.NetworkImpl - building LinkQuadTree for nodes: xrange(288335.4442501353,953227.577157235); yrange(5242845.444958333,6003702.4934690865)
2024-05-28 15:54:10.103 [main] INFO  org.matsim.core.network.NetworkImpl - Building LinkQuadTree took 0.075 seconds.
2024-05-28 15:54:10.118 [main] INFO  hagrid.demand.LogisticsDataProcessor - Read 25 entries from file: phd/input/hubs/KEP-hubs_v3.csv
2024-05-28 15:54:10.119 [main] INFO  hagrid.demand.LogisticsDataProcessor - Reading parcel locker data from file: phd/input/hubs/standorte_von_dhl.de.csv
2024-05-28 15:54:10.120 [main] INFO  hagrid.demand.LogisticsDataProcessor - Reading data from file: phd/input/hubs/standorte_von_dhl.de.csv
2024-05-28 15:54:13.326 [main] INFO  org.matsim.core.network.NetworkImpl - building LinkQuadTree for nodes: xrange(286579.5670514173,953227.577157235); yrange(5242845.444958333,6018233.358636351)
2024-05-28 15:54:13.420 [main] INFO  org.matsim.core.network.NetworkImpl - Building LinkQuadTree took 0.115 seconds.
2024-05-28 15:54:13.738 [main] INFO  hagrid.demand.LogisticsDataProcessor - Read 308 entries from file: phd/input/hubs/standorte_von_dhl.de.csv
2024-05-28 15:54:13.739 [main] INFO  hagrid.demand.LogisticsDataProcessor - Reading shipping point data from folder: phd/input/hubs/standorte_von_paket.net/
2024-05-28 15:54:13.741 [main] INFO  hagrid.demand.LogisticsDataProcessor - Reading data from file: phd/input/hubs/standorte_von_paket.net/dhl_paketnet_list.csv
2024-05-28 15:54:13.873 [main] INFO  hagrid.demand.LogisticsDataProcessor - Read 301 entries from file: phd/input/hubs/standorte_von_paket.net/dhl_paketnet_list.csv
2024-05-28 15:54:13.875 [main] INFO  hagrid.demand.LogisticsDataProcessor - Reading data from file: phd/input/hubs/standorte_von_paket.net/dpd_paketnet_list.csv
2024-05-28 15:54:13.910 [main] INFO  hagrid.demand.LogisticsDataProcessor - Read 95 entries from file: phd/input/hubs/standorte_von_paket.net/dpd_paketnet_list.csv
2024-05-28 15:54:13.910 [main] INFO  hagrid.demand.LogisticsDataProcessor - Reading data from file: phd/input/hubs/standorte_von_paket.net/gls_paketnet_list.csv
2024-05-28 15:54:13.942 [main] INFO  hagrid.demand.LogisticsDataProcessor - Read 92 entries from file: phd/input/hubs/standorte_von_paket.net/gls_paketnet_list.csv
2024-05-28 15:54:13.942 [main] INFO  hagrid.demand.LogisticsDataProcessor - Reading data from file: phd/input/hubs/standorte_von_paket.net/hermes_paketnet_list.csv
2024-05-28 15:54:14.021 [main] INFO  hagrid.demand.LogisticsDataProcessor - Read 200 entries from file: phd/input/hubs/standorte_von_paket.net/hermes_paketnet_list.csv
2024-05-28 15:54:14.021 [main] INFO  hagrid.demand.LogisticsDataProcessor - Reading data from file: phd/input/hubs/standorte_von_paket.net/ups_paketnet_list.csv
2024-05-28 15:54:14.043 [main] INFO  hagrid.demand.LogisticsDataProcessor - Read 52 entries from file: phd/input/hubs/standorte_von_paket.net/ups_paketnet_list.csv
2024-05-28 15:54:14.045 [main] INFO  hagrid.demand.LogisticsDataProcessor - Logistics data processing completed.
2024-05-28 15:54:14.045 [main] INFO  hagrid.App - Logistics data processing completed.
2024-05-28 15:54:14.046 [main] INFO  hagrid.App - Initializing DemandProcessor...
2024-05-28 15:54:14.064 [main] INFO  hagrid.App - Starting demand data processing...
2024-05-28 15:54:14.064 [main] INFO  hagrid.demand.DemandProcessor - Reading freight demand data from file: T:/bienzeisler/USEfUL-XT/matsim-hanover/01_MATSimModelCreator/vm-hochrechnung_matsim-punkte_epsg25832_mit_plz_v4_b2b.shp
2024-05-28 15:54:14.069 [main] WARN  org.matsim.core.utils.gis.GeoFileReader - Unsafe method! store.dispose() is not called from within this method
2024-05-28 15:54:14.979 [main] INFO  org.matsim.core.utils.gis.GeoFileReader - features to read #46565
2024-05-28 15:54:14.994 [main] INFO  org.matsim.core.utils.misc.Counter - features read #1
2024-05-28 15:54:14.996 [main] INFO  org.matsim.core.utils.misc.Counter - features read #2
2024-05-28 15:54:14.999 [main] INFO  org.matsim.core.utils.misc.Counter - features read #4
2024-05-28 15:54:15.001 [main] INFO  org.matsim.core.utils.misc.Counter - features read #8
2024-05-28 15:54:15.004 [main] INFO  org.matsim.core.utils.misc.Counter - features read #16
2024-05-28 15:54:15.014 [main] INFO  org.matsim.core.utils.misc.Counter - features read #32
2024-05-28 15:54:15.029 [main] INFO  org.matsim.core.utils.misc.Counter - features read #64
2024-05-28 15:54:15.047 [main] INFO  org.matsim.core.utils.misc.Counter - features read #128
2024-05-28 15:54:15.073 [main] INFO  org.matsim.core.utils.misc.Counter - features read #256
2024-05-28 15:54:15.115 [main] INFO  org.matsim.core.utils.misc.Counter - features read #512
2024-05-28 15:54:15.156 [main] INFO  org.matsim.core.utils.misc.Counter - features read #1024
2024-05-28 15:54:15.205 [main] INFO  org.matsim.core.utils.misc.Counter - features read #2048
2024-05-28 15:54:15.292 [main] INFO  org.matsim.core.utils.misc.Counter - features read #4096
2024-05-28 15:54:15.418 [main] INFO  org.matsim.core.utils.misc.Counter - features read #8192
2024-05-28 15:54:15.619 [main] INFO  org.matsim.core.utils.misc.Counter - features read #16384
2024-05-28 15:54:15.948 [main] INFO  org.matsim.core.utils.misc.Counter - features read #32768
2024-05-28 15:54:16.160 [main] INFO  org.matsim.core.utils.misc.Counter - features read #46565
2024-05-28 15:54:16.975 [main] INFO  hagrid.demand.DemandProcessor - Total Number of Deliveries: 105984
2024-05-28 15:54:16.976 [main] INFO  hagrid.demand.DemandProcessor - Total Number of Parcels: 196885
2024-05-28 15:54:17.080 [main] INFO  hagrid.demand.DemandProcessor - Demand Border: 600
2024-05-28 15:54:17.085 [main] INFO  hagrid.demand.DemandProcessor - Need for Split: dhl_31275: Number of Deliveries: 1557
2024-05-28 15:54:17.109 [main] INFO  hagrid.demand.DemandProcessor - Initializing KMeans clustering with 3 clusters...
2024-05-28 15:54:17.451 [main] INFO  hagrid.demand.DemandProcessor - Cluster 1: 519 features
2024-05-28 15:54:17.455 [main] INFO  hagrid.demand.DemandProcessor - Cluster 2: 519 features
2024-05-28 15:54:17.456 [main] INFO  hagrid.demand.DemandProcessor - Cluster 3: 519 features
2024-05-28 15:54:17.456 [main] INFO  hagrid.demand.DemandProcessor - Total number of clusters created: 3
2024-05-28 15:54:18.492 [main] INFO  hagrid.demand.DemandProcessor - Chart saved successfully at: phd/output/demand_clustering/ClusterResults_dhl_31275.png
2024-05-28 15:54:18.492 [main] INFO  hagrid.demand.DemandProcessor - Assigned Demand for new Carrier dhl_31275_0: 519
2024-05-28 15:54:18.501 [main] INFO  hagrid.demand.DemandProcessor - Assigned Demand for new Carrier dhl_31275_1: 519
2024-05-28 15:54:18.505 [main] INFO  hagrid.demand.DemandProcessor - Assigned Demand for new Carrier dhl_31275_2: 519
2024-05-28 15:54:18.508 [main] INFO  hagrid.demand.DemandProcessor - Need for Split: dhl_30880: Number of Deliveries: 950
2024-05-28 15:54:18.511 [main] INFO  hagrid.demand.DemandProcessor - Initializing KMeans clustering with 2 clusters...
2024-05-28 15:54:18.529 [main] INFO  hagrid.demand.DemandProcessor - Cluster 1: 475 features
2024-05-28 15:54:18.529 [main] INFO  hagrid.demand.DemandProcessor - Cluster 2: 475 features
2024-05-28 15:54:18.533 [main] INFO  hagrid.demand.DemandProcessor - Total number of clusters created: 2
2024-05-28 15:54:19.319 [main] INFO  hagrid.demand.DemandProcessor - Chart saved successfully at: phd/output/demand_clustering/ClusterResults_dhl_30880.png
2024-05-28 15:54:19.334 [main] INFO  hagrid.demand.DemandProcessor - Assigned Demand for new Carrier dhl_30880_0: 475
2024-05-28 15:54:19.334 [main] INFO  hagrid.demand.DemandProcessor - Assigned Demand for new Carrier dhl_30880_1: 475
2024-05-28 15:54:19.334 [main] INFO  hagrid.demand.DemandProcessor - Need for Split: dhl_31311: Number of Deliveries: 839
2024-05-28 15:54:19.334 [main] INFO  hagrid.demand.DemandProcessor - Initializing KMeans clustering with 2 clusters...
2024-05-28 15:54:19.402 [main] INFO  hagrid.demand.DemandProcessor - Cluster 1: 420 features
2024-05-28 15:54:19.402 [main] INFO  hagrid.demand.DemandProcessor - Cluster 2: 419 features
2024-05-28 15:54:19.402 [main] INFO  hagrid.demand.DemandProcessor - Total number of clusters created: 2
2024-05-28 15:54:19.637 [main] INFO  hagrid.demand.DemandProcessor - Chart saved successfully at: phd/output/demand_clustering/ClusterResults_dhl_31311.png
2024-05-28 15:54:19.637 [main] INFO  hagrid.demand.DemandProcessor - Assigned Demand for new Carrier dhl_31311_0: 420
2024-05-28 15:54:19.637 [main] INFO  hagrid.demand.DemandProcessor - Assigned Demand for new Carrier dhl_31311_1: 419
2024-05-28 15:54:19.645 [main] INFO  hagrid.demand.DemandProcessor - Need for Split: ups_31535: Number of Deliveries: 719
2024-05-28 15:54:19.645 [main] INFO  hagrid.demand.DemandProcessor - Initializing KMeans clustering with 2 clusters...
2024-05-28 15:54:19.670 [main] INFO  hagrid.demand.DemandProcessor - Cluster 1: 359 features
2024-05-28 15:54:19.671 [main] INFO  hagrid.demand.DemandProcessor - Cluster 2: 360 features
2024-05-28 15:54:19.672 [main] INFO  hagrid.demand.DemandProcessor - Total number of clusters created: 2
2024-05-28 15:54:19.867 [main] INFO  hagrid.demand.DemandProcessor - Chart saved successfully at: phd/output/demand_clustering/ClusterResults_ups_31535.png
2024-05-28 15:54:19.867 [main] INFO  hagrid.demand.DemandProcessor - Assigned Demand for new Carrier ups_31535_0: 359
2024-05-28 15:54:19.867 [main] INFO  hagrid.demand.DemandProcessor - Assigned Demand for new Carrier ups_31535_1: 360
2024-05-28 15:54:19.867 [main] INFO  hagrid.demand.DemandProcessor - Need for Split: ups_31515: Number of Deliveries: 668
2024-05-28 15:54:19.882 [main] INFO  hagrid.demand.DemandProcessor - Initializing KMeans clustering with 2 clusters...
2024-05-28 15:54:19.894 [main] INFO  hagrid.demand.DemandProcessor - Cluster 1: 334 features
2024-05-28 15:54:19.895 [main] INFO  hagrid.demand.DemandProcessor - Cluster 2: 334 features
2024-05-28 15:54:19.896 [main] INFO  hagrid.demand.DemandProcessor - Total number of clusters created: 2
2024-05-28 15:54:20.130 [main] INFO  hagrid.demand.DemandProcessor - Chart saved successfully at: phd/output/demand_clustering/ClusterResults_ups_31515.png
2024-05-28 15:54:20.130 [main] INFO  hagrid.demand.DemandProcessor - Assigned Demand for new Carrier ups_31515_0: 334
2024-05-28 15:54:20.132 [main] INFO  hagrid.demand.DemandProcessor - Assigned Demand for new Carrier ups_31515_1: 334
2024-05-28 15:54:20.132 [main] INFO  hagrid.demand.DemandProcessor - Need for Split: dhl_30419: Number of Deliveries: 838
2024-05-28 15:54:20.136 [main] INFO  hagrid.demand.DemandProcessor - Initializing KMeans clustering with 2 clusters...
2024-05-28 15:54:20.169 [main] INFO  hagrid.demand.DemandProcessor - Cluster 1: 419 features
2024-05-28 15:54:20.169 [main] INFO  hagrid.demand.DemandProcessor - Cluster 2: 419 features
2024-05-28 15:54:20.169 [main] INFO  hagrid.demand.DemandProcessor - Total number of clusters created: 2
2024-05-28 15:54:20.401 [main] INFO  hagrid.demand.DemandProcessor - Chart saved successfully at: phd/output/demand_clustering/ClusterResults_dhl_30419.png
2024-05-28 15:54:20.405 [main] INFO  hagrid.demand.DemandProcessor - Assigned Demand for new Carrier dhl_30419_0: 419
2024-05-28 15:54:20.405 [main] INFO  hagrid.demand.DemandProcessor - Assigned Demand for new Carrier dhl_30419_1: 419
2024-05-28 15:54:20.405 [main] INFO  hagrid.demand.DemandProcessor - Need for Split: dhl_30519: Number of Deliveries: 650
2024-05-28 15:54:20.405 [main] INFO  hagrid.demand.DemandProcessor - Initializing KMeans clustering with 2 clusters...
2024-05-28 15:54:20.435 [main] INFO  hagrid.demand.DemandProcessor - Cluster 1: 325 features
2024-05-28 15:54:20.435 [main] INFO  hagrid.demand.DemandProcessor - Cluster 2: 325 features
2024-05-28 15:54:20.440 [main] INFO  hagrid.demand.DemandProcessor - Total number of clusters created: 2
2024-05-28 15:54:20.634 [main] INFO  hagrid.demand.DemandProcessor - Chart saved successfully at: phd/output/demand_clustering/ClusterResults_dhl_30519.png
2024-05-28 15:54:20.634 [main] INFO  hagrid.demand.DemandProcessor - Assigned Demand for new Carrier dhl_30519_0: 325
2024-05-28 15:54:20.634 [main] INFO  hagrid.demand.DemandProcessor - Assigned Demand for new Carrier dhl_30519_1: 325
2024-05-28 15:54:20.634 [main] INFO  hagrid.demand.DemandProcessor - Need for Split: dhl_30938: Number of Deliveries: 861
2024-05-28 15:54:20.641 [main] INFO  hagrid.demand.DemandProcessor - Initializing KMeans clustering with 2 clusters...
2024-05-28 15:54:20.665 [main] INFO  hagrid.demand.DemandProcessor - Cluster 1: 431 features
2024-05-28 15:54:20.667 [main] INFO  hagrid.demand.DemandProcessor - Cluster 2: 430 features
2024-05-28 15:54:20.667 [main] INFO  hagrid.demand.DemandProcessor - Total number of clusters created: 2
2024-05-28 15:54:20.876 [main] INFO  hagrid.demand.DemandProcessor - Chart saved successfully at: phd/output/demand_clustering/ClusterResults_dhl_30938.png
2024-05-28 15:54:20.881 [main] INFO  hagrid.demand.DemandProcessor - Assigned Demand for new Carrier dhl_30938_0: 431
2024-05-28 15:54:20.881 [main] INFO  hagrid.demand.DemandProcessor - Assigned Demand for new Carrier dhl_30938_1: 430
2024-05-28 15:54:20.883 [main] INFO  hagrid.demand.DemandProcessor - Need for Split: dhl_30916: Number of Deliveries: 945
2024-05-28 15:54:20.884 [main] INFO  hagrid.demand.DemandProcessor - Initializing KMeans clustering with 2 clusters...
2024-05-28 15:54:20.898 [main] INFO  hagrid.demand.DemandProcessor - Cluster 1: 472 features
2024-05-28 15:54:20.903 [main] INFO  hagrid.demand.DemandProcessor - Cluster 2: 473 features
2024-05-28 15:54:20.905 [main] INFO  hagrid.demand.DemandProcessor - Total number of clusters created: 2
2024-05-28 15:54:21.205 [main] INFO  hagrid.demand.DemandProcessor - Chart saved successfully at: phd/output/demand_clustering/ClusterResults_dhl_30916.png
2024-05-28 15:54:21.205 [main] INFO  hagrid.demand.DemandProcessor - Assigned Demand for new Carrier dhl_30916_0: 472
2024-05-28 15:54:21.209 [main] INFO  hagrid.demand.DemandProcessor - Assigned Demand for new Carrier dhl_30916_1: 473
2024-05-28 15:54:21.211 [main] INFO  hagrid.demand.DemandProcessor - Need for Split: ups_31275: Number of Deliveries: 729
2024-05-28 15:54:21.211 [main] INFO  hagrid.demand.DemandProcessor - Initializing KMeans clustering with 2 clusters...
2024-05-28 15:54:21.222 [main] INFO  hagrid.demand.DemandProcessor - Cluster 1: 365 features
2024-05-28 15:54:21.224 [main] INFO  hagrid.demand.DemandProcessor - Cluster 2: 364 features
2024-05-28 15:54:21.227 [main] INFO  hagrid.demand.DemandProcessor - Total number of clusters created: 2
2024-05-28 15:54:21.546 [main] INFO  hagrid.demand.DemandProcessor - Chart saved successfully at: phd/output/demand_clustering/ClusterResults_ups_31275.png
2024-05-28 15:54:21.549 [main] INFO  hagrid.demand.DemandProcessor - Assigned Demand for new Carrier ups_31275_0: 365
2024-05-28 15:54:21.551 [main] INFO  hagrid.demand.DemandProcessor - Assigned Demand for new Carrier ups_31275_1: 364
2024-05-28 15:54:21.554 [main] INFO  hagrid.demand.DemandProcessor - Need for Split: dhl_31303: Number of Deliveries: 1073
2024-05-28 15:54:21.556 [main] INFO  hagrid.demand.DemandProcessor - Initializing KMeans clustering with 2 clusters...
2024-05-28 15:54:21.619 [main] INFO  hagrid.demand.DemandProcessor - Cluster 1: 537 features
2024-05-28 15:54:21.622 [main] INFO  hagrid.demand.DemandProcessor - Cluster 2: 536 features
2024-05-28 15:54:21.622 [main] INFO  hagrid.demand.DemandProcessor - Total number of clusters created: 2
2024-05-28 15:54:21.851 [main] INFO  hagrid.demand.DemandProcessor - Chart saved successfully at: phd/output/demand_clustering/ClusterResults_dhl_31303.png
2024-05-28 15:54:21.851 [main] INFO  hagrid.demand.DemandProcessor - Assigned Demand for new Carrier dhl_31303_0: 537
2024-05-28 15:54:21.854 [main] INFO  hagrid.demand.DemandProcessor - Assigned Demand for new Carrier dhl_31303_1: 536
2024-05-28 15:54:21.855 [main] INFO  hagrid.demand.DemandProcessor - Need for Split: dhl_30952: Number of Deliveries: 692
2024-05-28 15:54:21.855 [main] INFO  hagrid.demand.DemandProcessor - Initializing KMeans clustering with 2 clusters...
2024-05-28 15:54:21.861 [main] INFO  hagrid.demand.DemandProcessor - Cluster 1: 346 features
2024-05-28 15:54:21.862 [main] INFO  hagrid.demand.DemandProcessor - Cluster 2: 346 features
2024-05-28 15:54:21.863 [main] INFO  hagrid.demand.DemandProcessor - Total number of clusters created: 2
2024-05-28 15:54:22.051 [main] INFO  hagrid.demand.DemandProcessor - Chart saved successfully at: phd/output/demand_clustering/ClusterResults_dhl_30952.png
2024-05-28 15:54:22.052 [main] INFO  hagrid.demand.DemandProcessor - Assigned Demand for new Carrier dhl_30952_0: 346
2024-05-28 15:54:22.053 [main] INFO  hagrid.demand.DemandProcessor - Assigned Demand for new Carrier dhl_30952_1: 346
2024-05-28 15:54:22.053 [main] INFO  hagrid.demand.DemandProcessor - Need for Split: dpd_30855: Number of Deliveries: 645
2024-05-28 15:54:22.053 [main] INFO  hagrid.demand.DemandProcessor - Initializing KMeans clustering with 2 clusters...
2024-05-28 15:54:22.053 [main] INFO  hagrid.demand.DemandProcessor - Cluster 1: 323 features
2024-05-28 15:54:22.053 [main] INFO  hagrid.demand.DemandProcessor - Cluster 2: 322 features
2024-05-28 15:54:22.053 [main] INFO  hagrid.demand.DemandProcessor - Total number of clusters created: 2
2024-05-28 15:54:22.255 [main] INFO  hagrid.demand.DemandProcessor - Chart saved successfully at: phd/output/demand_clustering/ClusterResults_dpd_30855.png
2024-05-28 15:54:22.255 [main] INFO  hagrid.demand.DemandProcessor - Assigned Demand for new Carrier dpd_30855_0: 323
2024-05-28 15:54:22.255 [main] INFO  hagrid.demand.DemandProcessor - Assigned Demand for new Carrier dpd_30855_1: 322
2024-05-28 15:54:22.260 [main] INFO  hagrid.demand.DemandProcessor - Need for Split: dhl_30855: Number of Deliveries: 1052
2024-05-28 15:54:22.260 [main] INFO  hagrid.demand.DemandProcessor - Initializing KMeans clustering with 2 clusters...
2024-05-28 15:54:22.269 [main] INFO  hagrid.demand.DemandProcessor - Cluster 1: 526 features
2024-05-28 15:54:22.269 [main] INFO  hagrid.demand.DemandProcessor - Cluster 2: 526 features
2024-05-28 15:54:22.269 [main] INFO  hagrid.demand.DemandProcessor - Total number of clusters created: 2
2024-05-28 15:54:22.472 [main] INFO  hagrid.demand.DemandProcessor - Chart saved successfully at: phd/output/demand_clustering/ClusterResults_dhl_30855.png
2024-05-28 15:54:22.473 [main] INFO  hagrid.demand.DemandProcessor - Assigned Demand for new Carrier dhl_30855_0: 526
2024-05-28 15:54:22.474 [main] INFO  hagrid.demand.DemandProcessor - Assigned Demand for new Carrier dhl_30855_1: 526
2024-05-28 15:54:22.475 [main] INFO  hagrid.demand.DemandProcessor - Need for Split: dhl_30559: Number of Deliveries: 682
2024-05-28 15:54:22.476 [main] INFO  hagrid.demand.DemandProcessor - Initializing KMeans clustering with 2 clusters...
2024-05-28 15:54:22.480 [main] INFO  hagrid.demand.DemandProcessor - Cluster 1: 341 features
2024-05-28 15:54:22.481 [main] INFO  hagrid.demand.DemandProcessor - Cluster 2: 341 features
2024-05-28 15:54:22.483 [main] INFO  hagrid.demand.DemandProcessor - Total number of clusters created: 2
2024-05-28 15:54:22.637 [main] INFO  hagrid.demand.DemandProcessor - Chart saved successfully at: phd/output/demand_clustering/ClusterResults_dhl_30559.png
2024-05-28 15:54:22.638 [main] INFO  hagrid.demand.DemandProcessor - Assigned Demand for new Carrier dhl_30559_0: 341
2024-05-28 15:54:22.639 [main] INFO  hagrid.demand.DemandProcessor - Assigned Demand for new Carrier dhl_30559_1: 341
2024-05-28 15:54:22.641 [main] INFO  hagrid.demand.DemandProcessor - Need for Split: dpd_31535: Number of Deliveries: 641
2024-05-28 15:54:22.642 [main] INFO  hagrid.demand.DemandProcessor - Initializing KMeans clustering with 2 clusters...
2024-05-28 15:54:22.646 [main] INFO  hagrid.demand.DemandProcessor - Cluster 1: 320 features
2024-05-28 15:54:22.646 [main] INFO  hagrid.demand.DemandProcessor - Cluster 2: 321 features
2024-05-28 15:54:22.647 [main] INFO  hagrid.demand.DemandProcessor - Total number of clusters created: 2
2024-05-28 15:54:22.830 [main] INFO  hagrid.demand.DemandProcessor - Chart saved successfully at: phd/output/demand_clustering/ClusterResults_dpd_31535.png
2024-05-28 15:54:22.832 [main] INFO  hagrid.demand.DemandProcessor - Assigned Demand for new Carrier dpd_31535_0: 320
2024-05-28 15:54:22.833 [main] INFO  hagrid.demand.DemandProcessor - Assigned Demand for new Carrier dpd_31535_1: 321
2024-05-28 15:54:22.835 [main] INFO  hagrid.demand.DemandProcessor - Need for Split: dhl_30890: Number of Deliveries: 1138
2024-05-28 15:54:22.837 [main] INFO  hagrid.demand.DemandProcessor - Initializing KMeans clustering with 2 clusters...
2024-05-28 15:54:22.846 [main] INFO  hagrid.demand.DemandProcessor - Cluster 1: 569 features
2024-05-28 15:54:22.847 [main] INFO  hagrid.demand.DemandProcessor - Cluster 2: 569 features
2024-05-28 15:54:22.848 [main] INFO  hagrid.demand.DemandProcessor - Total number of clusters created: 2
2024-05-28 15:54:23.123 [main] INFO  hagrid.demand.DemandProcessor - Chart saved successfully at: phd/output/demand_clustering/ClusterResults_dhl_30890.png
2024-05-28 15:54:23.124 [main] INFO  hagrid.demand.DemandProcessor - Assigned Demand for new Carrier dhl_30890_0: 569
2024-05-28 15:54:23.125 [main] INFO  hagrid.demand.DemandProcessor - Assigned Demand for new Carrier dhl_30890_1: 569
2024-05-28 15:54:23.127 [main] INFO  hagrid.demand.DemandProcessor - Need for Split: ups_30855: Number of Deliveries: 717
2024-05-28 15:54:23.129 [main] INFO  hagrid.demand.DemandProcessor - Initializing KMeans clustering with 2 clusters...
2024-05-28 15:54:23.137 [main] INFO  hagrid.demand.DemandProcessor - Cluster 1: 359 features
2024-05-28 15:54:23.138 [main] INFO  hagrid.demand.DemandProcessor - Cluster 2: 358 features
2024-05-28 15:54:23.139 [main] INFO  hagrid.demand.DemandProcessor - Total number of clusters created: 2
2024-05-28 15:54:23.354 [main] INFO  hagrid.demand.DemandProcessor - Chart saved successfully at: phd/output/demand_clustering/ClusterResults_ups_30855.png
2024-05-28 15:54:23.355 [main] INFO  hagrid.demand.DemandProcessor - Assigned Demand for new Carrier ups_30855_0: 359
2024-05-28 15:54:23.356 [main] INFO  hagrid.demand.DemandProcessor - Assigned Demand for new Carrier ups_30855_1: 358
2024-05-28 15:54:23.357 [main] INFO  hagrid.demand.DemandProcessor - Need for Split: dhl_30826: Number of Deliveries: 648
2024-05-28 15:54:23.359 [main] INFO  hagrid.demand.DemandProcessor - Initializing KMeans clustering with 2 clusters...
2024-05-28 15:54:23.364 [main] INFO  hagrid.demand.DemandProcessor - Cluster 1: 324 features
2024-05-28 15:54:23.364 [main] INFO  hagrid.demand.DemandProcessor - Cluster 2: 324 features
2024-05-28 15:54:23.364 [main] INFO  hagrid.demand.DemandProcessor - Total number of clusters created: 2
2024-05-28 15:54:23.574 [main] INFO  hagrid.demand.DemandProcessor - Chart saved successfully at: phd/output/demand_clustering/ClusterResults_dhl_30826.png
2024-05-28 15:54:23.586 [main] INFO  hagrid.demand.DemandProcessor - Assigned Demand for new Carrier dhl_30826_0: 324
2024-05-28 15:54:23.587 [main] INFO  hagrid.demand.DemandProcessor - Assigned Demand for new Carrier dhl_30826_1: 324
2024-05-28 15:54:23.588 [main] INFO  hagrid.demand.DemandProcessor - Need for Split: dhl_30926: Number of Deliveries: 924
2024-05-28 15:54:23.588 [main] INFO  hagrid.demand.DemandProcessor - Initializing KMeans clustering with 2 clusters...
2024-05-28 15:54:23.588 [main] INFO  hagrid.demand.DemandProcessor - Cluster 1: 462 features
2024-05-28 15:54:23.598 [main] INFO  hagrid.demand.DemandProcessor - Cluster 2: 462 features
2024-05-28 15:54:23.598 [main] INFO  hagrid.demand.DemandProcessor - Total number of clusters created: 2
2024-05-28 15:54:23.840 [main] INFO  hagrid.demand.DemandProcessor - Chart saved successfully at: phd/output/demand_clustering/ClusterResults_dhl_30926.png
2024-05-28 15:54:23.840 [main] INFO  hagrid.demand.DemandProcessor - Assigned Demand for new Carrier dhl_30926_0: 462
2024-05-28 15:54:23.842 [main] INFO  hagrid.demand.DemandProcessor - Assigned Demand for new Carrier dhl_30926_1: 462
2024-05-28 15:54:23.842 [main] INFO  hagrid.demand.DemandProcessor - Need for Split: dhl_31832: Number of Deliveries: 1059
2024-05-28 15:54:23.845 [main] INFO  hagrid.demand.DemandProcessor - Initializing KMeans clustering with 2 clusters...
2024-05-28 15:54:23.856 [main] INFO  hagrid.demand.DemandProcessor - Cluster 1: 530 features
2024-05-28 15:54:23.857 [main] INFO  hagrid.demand.DemandProcessor - Cluster 2: 529 features
2024-05-28 15:54:23.859 [main] INFO  hagrid.demand.DemandProcessor - Total number of clusters created: 2
2024-05-28 15:54:24.136 [main] INFO  hagrid.demand.DemandProcessor - Chart saved successfully at: phd/output/demand_clustering/ClusterResults_dhl_31832.png
2024-05-28 15:54:24.136 [main] INFO  hagrid.demand.DemandProcessor - Assigned Demand for new Carrier dhl_31832_0: 530
2024-05-28 15:54:24.136 [main] INFO  hagrid.demand.DemandProcessor - Assigned Demand for new Carrier dhl_31832_1: 529
2024-05-28 15:54:24.139 [main] INFO  hagrid.demand.DemandProcessor - Need for Split: dhl_31535: Number of Deliveries: 1661
2024-05-28 15:54:24.142 [main] INFO  hagrid.demand.DemandProcessor - Initializing KMeans clustering with 3 clusters...
2024-05-28 15:54:24.367 [main] INFO  hagrid.demand.DemandProcessor - Cluster 1: 553 features
2024-05-28 15:54:24.367 [main] INFO  hagrid.demand.DemandProcessor - Cluster 2: 554 features
2024-05-28 15:54:24.374 [main] INFO  hagrid.demand.DemandProcessor - Cluster 3: 554 features
2024-05-28 15:54:24.374 [main] INFO  hagrid.demand.DemandProcessor - Total number of clusters created: 3
2024-05-28 15:54:24.666 [main] INFO  hagrid.demand.DemandProcessor - Chart saved successfully at: phd/output/demand_clustering/ClusterResults_dhl_31535.png
2024-05-28 15:54:24.667 [main] INFO  hagrid.demand.DemandProcessor - Assigned Demand for new Carrier dhl_31535_0: 553
2024-05-28 15:54:24.668 [main] INFO  hagrid.demand.DemandProcessor - Assigned Demand for new Carrier dhl_31535_1: 554
2024-05-28 15:54:24.669 [main] INFO  hagrid.demand.DemandProcessor - Assigned Demand for new Carrier dhl_31535_2: 554
2024-05-28 15:54:24.670 [main] INFO  hagrid.demand.DemandProcessor - Need for Split: dpd_31275: Number of Deliveries: 620
2024-05-28 15:54:24.671 [main] INFO  hagrid.demand.DemandProcessor - Initializing KMeans clustering with 2 clusters...
2024-05-28 15:54:24.684 [main] INFO  hagrid.demand.DemandProcessor - Cluster 1: 310 features
2024-05-28 15:54:24.684 [main] INFO  hagrid.demand.DemandProcessor - Cluster 2: 310 features
2024-05-28 15:54:24.686 [main] INFO  hagrid.demand.DemandProcessor - Total number of clusters created: 2
2024-05-28 15:54:24.857 [main] INFO  hagrid.demand.DemandProcessor - Chart saved successfully at: phd/output/demand_clustering/ClusterResults_dpd_31275.png
2024-05-28 15:54:24.857 [main] INFO  hagrid.demand.DemandProcessor - Assigned Demand for new Carrier dpd_31275_0: 310
2024-05-28 15:54:24.859 [main] INFO  hagrid.demand.DemandProcessor - Assigned Demand for new Carrier dpd_31275_1: 310
2024-05-28 15:54:24.860 [main] INFO  hagrid.demand.DemandProcessor - Need for Split: dhl_31515: Number of Deliveries: 1407
2024-05-28 15:54:24.860 [main] INFO  hagrid.demand.DemandProcessor - Initializing KMeans clustering with 3 clusters...
2024-05-28 15:54:24.879 [main] INFO  hagrid.demand.DemandProcessor - Cluster 1: 469 features
2024-05-28 15:54:24.879 [main] INFO  hagrid.demand.DemandProcessor - Cluster 2: 469 features
2024-05-28 15:54:24.879 [main] INFO  hagrid.demand.DemandProcessor - Cluster 3: 469 features
2024-05-28 15:54:24.882 [main] INFO  hagrid.demand.DemandProcessor - Total number of clusters created: 3
2024-05-28 15:54:25.107 [main] INFO  hagrid.demand.DemandProcessor - Chart saved successfully at: phd/output/demand_clustering/ClusterResults_dhl_31515.png
2024-05-28 15:54:25.107 [main] INFO  hagrid.demand.DemandProcessor - Assigned Demand for new Carrier dhl_31515_0: 469
2024-05-28 15:54:25.112 [main] INFO  hagrid.demand.DemandProcessor - Assigned Demand for new Carrier dhl_31515_1: 469
2024-05-28 15:54:25.112 [main] INFO  hagrid.demand.DemandProcessor - Assigned Demand for new Carrier dhl_31515_2: 469
2024-05-28 15:54:25.114 [main] INFO  hagrid.demand.DemandProcessor - Need for Split: dhl_30823: Number of Deliveries: 657
2024-05-28 15:54:25.114 [main] INFO  hagrid.demand.DemandProcessor - Initializing KMeans clustering with 2 clusters...
2024-05-28 15:54:25.125 [main] INFO  hagrid.demand.DemandProcessor - Cluster 1: 328 features
2024-05-28 15:54:25.125 [main] INFO  hagrid.demand.DemandProcessor - Cluster 2: 329 features
2024-05-28 15:54:25.127 [main] INFO  hagrid.demand.DemandProcessor - Total number of clusters created: 2
2024-05-28 15:54:25.291 [main] INFO  hagrid.demand.DemandProcessor - Chart saved successfully at: phd/output/demand_clustering/ClusterResults_dhl_30823.png
2024-05-28 15:54:25.291 [main] INFO  hagrid.demand.DemandProcessor - Assigned Demand for new Carrier dhl_30823_0: 328
2024-05-28 15:54:25.291 [main] INFO  hagrid.demand.DemandProcessor - Assigned Demand for new Carrier dhl_30823_1: 329
2024-05-28 15:54:25.299 [main] INFO  hagrid.demand.DemandProcessor - Need for Split: dhl_30966: Number of Deliveries: 648
2024-05-28 15:54:25.299 [main] INFO  hagrid.demand.DemandProcessor - Initializing KMeans clustering with 2 clusters...
2024-05-28 15:54:25.304 [main] INFO  hagrid.demand.DemandProcessor - Cluster 1: 324 features
2024-05-28 15:54:25.304 [main] INFO  hagrid.demand.DemandProcessor - Cluster 2: 324 features
2024-05-28 15:54:25.304 [main] INFO  hagrid.demand.DemandProcessor - Total number of clusters created: 2
2024-05-28 15:54:25.497 [main] INFO  hagrid.demand.DemandProcessor - Chart saved successfully at: phd/output/demand_clustering/ClusterResults_dhl_30966.png
2024-05-28 15:54:25.498 [main] INFO  hagrid.demand.DemandProcessor - Assigned Demand for new Carrier dhl_30966_0: 324
2024-05-28 15:54:25.502 [main] INFO  hagrid.demand.DemandProcessor - Assigned Demand for new Carrier dhl_30966_1: 324
2024-05-28 15:54:25.505 [main] INFO  hagrid.demand.DemandProcessor - Need for Split: dhl_30900: Number of Deliveries: 1308
2024-05-28 15:54:25.506 [main] INFO  hagrid.demand.DemandProcessor - Initializing KMeans clustering with 3 clusters...
2024-05-28 15:54:25.558 [main] INFO  hagrid.demand.DemandProcessor - Cluster 1: 436 features
2024-05-28 15:54:25.559 [main] INFO  hagrid.demand.DemandProcessor - Cluster 2: 436 features
2024-05-28 15:54:25.559 [main] INFO  hagrid.demand.DemandProcessor - Cluster 3: 436 features
2024-05-28 15:54:25.560 [main] INFO  hagrid.demand.DemandProcessor - Total number of clusters created: 3
2024-05-28 15:54:25.884 [main] INFO  hagrid.demand.DemandProcessor - Chart saved successfully at: phd/output/demand_clustering/ClusterResults_dhl_30900.png
2024-05-28 15:54:25.887 [main] INFO  hagrid.demand.DemandProcessor - Assigned Demand for new Carrier dhl_30900_0: 436
2024-05-28 15:54:25.889 [main] INFO  hagrid.demand.DemandProcessor - Assigned Demand for new Carrier dhl_30900_1: 436
2024-05-28 15:54:25.891 [main] INFO  hagrid.demand.DemandProcessor - Assigned Demand for new Carrier dhl_30900_2: 436
2024-05-28 15:54:25.892 [main] INFO  hagrid.demand.DemandProcessor - Need for Split: dhl_31319: Number of Deliveries: 945
2024-05-28 15:54:25.895 [main] INFO  hagrid.demand.DemandProcessor - Initializing KMeans clustering with 2 clusters...
2024-05-28 15:54:25.907 [main] INFO  hagrid.demand.DemandProcessor - Cluster 1: 473 features
2024-05-28 15:54:25.908 [main] INFO  hagrid.demand.DemandProcessor - Cluster 2: 472 features
2024-05-28 15:54:25.910 [main] INFO  hagrid.demand.DemandProcessor - Total number of clusters created: 2
2024-05-28 15:54:26.163 [main] INFO  hagrid.demand.DemandProcessor - Chart saved successfully at: phd/output/demand_clustering/ClusterResults_dhl_31319.png
2024-05-28 15:54:26.163 [main] INFO  hagrid.demand.DemandProcessor - Assigned Demand for new Carrier dhl_31319_0: 473
2024-05-28 15:54:26.165 [main] INFO  hagrid.demand.DemandProcessor - Assigned Demand for new Carrier dhl_31319_1: 472
2024-05-28 15:54:26.272 [main] INFO  hagrid.demand.DemandProcessor - Total Number of Deliveries: 105984
2024-05-28 15:54:26.272 [main] INFO  hagrid.demand.DemandProcessor - Total Number of Parcels: 196885
2024-05-28 15:54:26.272 [main] INFO  hagrid.demand.DemandProcessor - Validation completed successfully: Total number of deliveries and parcels match.
2024-05-28 15:54:26.272 [main] INFO  hagrid.demand.DemandProcessor - Freight demand data processing completed.
2024-05-28 15:54:26.272 [main] INFO  hagrid.App - Demand data processing completed.
2024-05-28 15:54:26.272 [main] INFO  hagrid.App - Initializing ParcelGenerator...
2024-05-28 15:54:26.276 [main] INFO  hagrid.App - Starting parcel generation based on sorted Demand...
2024-05-28 15:54:26.276 [main] INFO  hagrid.demand.ParcelGenerator - Generating parcels from sorted carrier demand...
2024-05-28 15:54:26.284 [main] INFO  hagrid.demand.ParcelGenerator - Total Parcels from carrier demand: 105984
2024-05-28 15:54:27.133 [main] INFO  hagrid.demand.ParcelGenerator - === Parcel Statistics by Provider ===
Provider: amazon
  Total Parcels   : 12.592
  B2B Parcels     : 283
  Total Amount    : 18.401
  B2B Amount      : 532
  B2B Parcel Ratio: 2,25%
  B2B Amount Ratio: 2,89%

Provider: fedex
  Total Parcels   : 9.911
  B2B Parcels     : 2.115
  Total Amount    : 13.225
  B2B Amount      : 3.415
  B2B Parcel Ratio: 21,34%
  B2B Amount Ratio: 25,82%

Provider: ups
  Total Parcels   : 16.314
  B2B Parcels     : 3.286
  Total Amount    : 26.491
  B2B Amount      : 6.854
  B2B Parcel Ratio: 20,14%
  B2B Amount Ratio: 25,87%

Provider: dpd
  Total Parcels   : 14.390
  B2B Parcels     : 3.027
  Total Amount    : 22.122
  B2B Amount      : 5.919
  B2B Parcel Ratio: 21,04%
  B2B Amount Ratio: 26,76%

Provider: dhl
  Total Parcels   : 31.013
  B2B Parcels     : 5.878
  Total Amount    : 86.362
  B2B Amount      : 22.822
  B2B Parcel Ratio: 18,95%
  B2B Amount Ratio: 26,43%

Provider: hermes
  Total Parcels   : 9.570
  B2B Parcels     : 2.091
  Total Amount    : 12.603
  B2B Amount      : 3.160
  B2B Parcel Ratio: 21,85%
  B2B Amount Ratio: 25,07%

Provider: gls
  Total Parcels   : 12.194
  B2B Parcels     : 2.508
  Total Amount    : 17.681
  B2B Amount      : 4.550
  B2B Parcel Ratio: 20,57%
  B2B Amount Ratio: 25,73%

=== Summary by Postal Code ===
Postal Code: 30938
  Total Parcels   : 2.568
  B2B Parcels     : 493
  Total Amount    : 4.437
  B2B Amount      : 1.447
  B2B Parcel Ratio: 19,20%
  B2B Amount Ratio: 32,61%

Postal Code: 31311
  Total Parcels   : 2.479
  B2B Parcels     : 362
  Total Amount    : 3.414
  B2B Amount      : 550
  B2B Parcel Ratio: 14,60%
  B2B Amount Ratio: 16,11%

Postal Code: 30982
  Total Parcels   : 1.708
  B2B Parcels     : 293
  Total Amount    : 2.499
  B2B Amount      : 412
  B2B Parcel Ratio: 17,15%
  B2B Amount Ratio: 16,49%

Postal Code: 31275
  Total Parcels   : 4.814
  B2B Parcels     : 832
  Total Amount    : 7.279
  B2B Amount      : 1.373
  B2B Parcel Ratio: 17,28%
  B2B Amount Ratio: 18,86%

Postal Code: 31319
  Total Parcels   : 2.851
  B2B Parcels     : 335
  Total Amount    : 4.147
  B2B Amount      : 524
  B2B Parcel Ratio: 11,75%
  B2B Amount Ratio: 12,64%

Postal Code: 30989
  Total Parcels   : 1.677
  B2B Parcels     : 327
  Total Amount    : 2.565
  B2B Amount      : 529
  B2B Parcel Ratio: 19,50%
  B2B Amount Ratio: 20,62%

Postal Code: 30823
  Total Parcels   : 2.181
  B2B Parcels     : 349
  Total Amount    : 3.622
  B2B Amount      : 623
  B2B Parcel Ratio: 16,00%
  B2B Amount Ratio: 17,20%

Postal Code: 30625
  Total Parcels   : 1.448
  B2B Parcels     : 289
  Total Amount    : 2.762
  B2B Amount      : 590
  B2B Parcel Ratio: 19,96%
  B2B Amount Ratio: 21,36%

Postal Code: 30900
  Total Parcels   : 3.814
  B2B Parcels     : 687
  Total Amount    : 5.464
  B2B Amount      : 1.018
  B2B Parcel Ratio: 18,01%
  B2B Amount Ratio: 18,63%

Postal Code: 30826
  Total Parcels   : 2.027
  B2B Parcels     : 259
  Total Amount    : 3.177
  B2B Amount      : 537
  B2B Parcel Ratio: 12,78%
  B2B Amount Ratio: 16,90%

Postal Code: 30627
  Total Parcels   : 840
  B2B Parcels     : 140
  Total Amount    : 1.803
  B2B Amount      : 482
  B2B Parcel Ratio: 16,67%
  B2B Amount Ratio: 26,73%

Postal Code: 31832
  Total Parcels   : 3.226
  B2B Parcels     : 536
  Total Amount    : 4.778
  B2B Amount      : 848
  B2B Parcel Ratio: 16,62%
  B2B Amount Ratio: 17,75%

Postal Code: 31515
  Total Parcels   : 4.426
  B2B Parcels     : 818
  Total Amount    : 7.089
  B2B Amount      : 1.483
  B2B Parcel Ratio: 18,48%
  B2B Amount Ratio: 20,92%

Postal Code: 30926
  Total Parcels   : 3.177
  B2B Parcels     : 357
  Total Amount    : 5.361
  B2B Amount      : 758
  B2B Parcel Ratio: 11,24%
  B2B Amount Ratio: 14,14%

Postal Code: 30171
  Total Parcels   : 999
  B2B Parcels     : 162
  Total Amount    : 3.004
  B2B Amount      : 516
  B2B Parcel Ratio: 16,22%
  B2B Amount Ratio: 17,18%

Postal Code: 30453
  Total Parcels   : 1.674
  B2B Parcels     : 398
  Total Amount    : 3.242
  B2B Amount      : 856
  B2B Parcel Ratio: 23,78%
  B2B Amount Ratio: 26,40%

Postal Code: 30177
  Total Parcels   : 1.127
  B2B Parcels     : 186
  Total Amount    : 2.539
  B2B Amount      : 387
  B2B Parcel Ratio: 16,50%
  B2B Amount Ratio: 15,24%

Postal Code: 30851
  Total Parcels   : 1.245
  B2B Parcels     : 198
  Total Amount    : 2.318
  B2B Amount      : 460
  B2B Parcel Ratio: 15,90%
  B2B Amount Ratio: 19,84%

Postal Code: 30455
  Total Parcels   : 1.489
  B2B Parcels     : 200
  Total Amount    : 2.657
  B2B Amount      : 397
  B2B Parcel Ratio: 13,43%
  B2B Amount Ratio: 14,94%

Postal Code: 30179
  Total Parcels   : 1.206
  B2B Parcels     : 259
  Total Amount    : 2.656
  B2B Amount      : 680
  B2B Parcel Ratio: 21,48%
  B2B Amount Ratio: 25,60%

Postal Code: 30173
  Total Parcels   : 1.402
  B2B Parcels     : 305
  Total Amount    : 3.340
  B2B Amount      : 836
  B2B Parcel Ratio: 21,75%
  B2B Amount Ratio: 25,03%

Postal Code: 30451
  Total Parcels   : 878
  B2B Parcels     : 163
  Total Amount    : 2.055
  B2B Amount      : 528
  B2B Parcel Ratio: 18,56%
  B2B Amount Ratio: 25,69%

Postal Code: 30175
  Total Parcels   : 744
  B2B Parcels     : 252
  Total Amount    : 1.616
  B2B Amount      : 601
  B2B Parcel Ratio: 33,87%
  B2B Amount Ratio: 37,19%

Postal Code: 30890
  Total Parcels   : 3.525
  B2B Parcels     : 560
  Total Amount    : 5.353
  B2B Amount      : 899
  B2B Parcel Ratio: 15,89%
  B2B Amount Ratio: 16,79%

Postal Code: 30659
  Total Parcels   : 1.258
  B2B Parcels     : 297
  Total Amount    : 2.545
  B2B Amount      : 700
  B2B Parcel Ratio: 23,61%
  B2B Amount Ratio: 27,50%

Postal Code: 30419
  Total Parcels   : 3.065
  B2B Parcels     : 435
  Total Amount    : 5.727
  B2B Amount      : 929
  B2B Parcel Ratio: 14,19%
  B2B Amount Ratio: 16,22%

Postal Code: 30539
  Total Parcels   : 1.682
  B2B Parcels     : 326
  Total Amount    : 3.929
  B2B Amount      : 1.414
  B2B Parcel Ratio: 19,38%
  B2B Amount Ratio: 35,99%

Postal Code: 30853
  Total Parcels   : 1.382
  B2B Parcels     : 365
  Total Amount    : 2.749
  B2B Amount      : 955
  B2B Parcel Ratio: 26,41%
  B2B Amount Ratio: 34,74%

Postal Code: 30974
  Total Parcels   : 1.606
  B2B Parcels     : 265
  Total Amount    : 2.459
  B2B Amount      : 503
  B2B Parcel Ratio: 16,50%
  B2B Amount Ratio: 20,46%

Postal Code: 30457
  Total Parcels   : 1.236
  B2B Parcels     : 146
  Total Amount    : 2.384
  B2B Amount      : 370
  B2B Parcel Ratio: 11,81%
  B2B Amount Ratio: 15,52%

Postal Code: 30655
  Total Parcels   : 1.505
  B2B Parcels     : 209
  Total Amount    : 3.208
  B2B Amount      : 559
  B2B Parcel Ratio: 13,89%
  B2B Amount Ratio: 17,43%

Postal Code: 31303
  Total Parcels   : 3.311
  B2B Parcels     : 579
  Total Amount    : 4.846
  B2B Amount      : 839
  B2B Parcel Ratio: 17,49%
  B2B Amount Ratio: 17,31%

Postal Code: 30855
  Total Parcels   : 4.283
  B2B Parcels     : 925
  Total Amount    : 11.778
  B2B Amount      : 4.174
  B2B Parcel Ratio: 21,60%
  B2B Amount Ratio: 35,44%

Postal Code: 30459
  Total Parcels   : 1.556
  B2B Parcels     : 218
  Total Amount    : 2.847
  B2B Amount      : 458
  B2B Parcel Ratio: 14,01%
  B2B Amount Ratio: 16,09%

Postal Code: 30657
  Total Parcels   : 1.237
  B2B Parcels     : 226
  Total Amount    : 3.294
  B2B Amount      : 1.345
  B2B Parcel Ratio: 18,27%
  B2B Amount Ratio: 40,83%

Postal Code: 30916
  Total Parcels   : 3.097
  B2B Parcels     : 791
  Total Amount    : 5.372
  B2B Amount      : 1.654
  B2B Parcel Ratio: 25,54%
  B2B Amount Ratio: 30,79%

Postal Code: 30519
  Total Parcels   : 2.403
  B2B Parcels     : 513
  Total Amount    : 4.839
  B2B Amount      : 1.249
  B2B Parcel Ratio: 21,35%
  B2B Amount Ratio: 25,81%

Postal Code: 30161
  Total Parcels   : 1.600
  B2B Parcels     : 399
  Total Amount    : 4.397
  B2B Amount      : 1.552
  B2B Parcel Ratio: 24,94%
  B2B Amount Ratio: 35,30%

Postal Code: 30167
  Total Parcels   : 1.082
  B2B Parcels     : 289
  Total Amount    : 2.702
  B2B Amount      : 898
  B2B Parcel Ratio: 26,71%
  B2B Amount Ratio: 33,23%

Postal Code: 30169
  Total Parcels   : 875
  B2B Parcels     : 240
  Total Amount    : 1.996
  B2B Amount      : 647
  B2B Parcel Ratio: 27,43%
  B2B Amount Ratio: 32,41%

Postal Code: 30163
  Total Parcels   : 1.468
  B2B Parcels     : 291
  Total Amount    : 3.699
  B2B Amount      : 975
  B2B Parcel Ratio: 19,82%
  B2B Amount Ratio: 26,36%

Postal Code: 30165
  Total Parcels   : 1.441
  B2B Parcels     : 288
  Total Amount    : 3.225
  B2B Amount      : 919
  B2B Parcel Ratio: 19,99%
  B2B Amount Ratio: 28,50%

Postal Code: 30880
  Total Parcels   : 3.466
  B2B Parcels     : 756
  Total Amount    : 6.471
  B2B Amount      : 1.753
  B2B Parcel Ratio: 21,81%
  B2B Amount Ratio: 27,09%

Postal Code: 30966
  Total Parcels   : 2.064
  B2B Parcels     : 282
  Total Amount    : 3.502
  B2B Amount      : 619
  B2B Parcel Ratio: 13,66%
  B2B Amount Ratio: 17,68%

Postal Code: 30449
  Total Parcels   : 1.158
  B2B Parcels     : 210
  Total Amount    : 2.763
  B2B Amount      : 781
  B2B Parcel Ratio: 18,13%
  B2B Amount Ratio: 28,27%

Postal Code: 31535
  Total Parcels   : 4.998
  B2B Parcels     : 725
  Total Amount    : 7.201
  B2B Amount      : 1.176
  B2B Parcel Ratio: 14,51%
  B2B Amount Ratio: 16,33%

Postal Code: 30827
  Total Parcels   : 1.610
  B2B Parcels     : 316
  Total Amount    : 3.050
  B2B Amount      : 838
  B2B Parcel Ratio: 19,63%
  B2B Amount Ratio: 27,48%

Postal Code: 30629
  Total Parcels   : 1.331
  B2B Parcels     : 158
  Total Amount    : 2.352
  B2B Amount      : 335
  B2B Parcel Ratio: 11,87%
  B2B Amount Ratio: 14,24%

Postal Code: 30559
  Total Parcels   : 2.283
  B2B Parcels     : 404
  Total Amount    : 4.556
  B2B Amount      : 1.330
  B2B Parcel Ratio: 17,70%
  B2B Amount Ratio: 29,19%

Postal Code: 30952
  Total Parcels   : 2.301
  B2B Parcels     : 389
  Total Amount    : 3.707
  B2B Amount      : 646
  B2B Parcel Ratio: 16,91%
  B2B Amount Ratio: 17,43%

Postal Code: 30159
  Total Parcels   : 1.161
  B2B Parcels     : 386
  Total Amount    : 4.110
  B2B Amount      : 2.300
  B2B Parcel Ratio: 33,25%
  B2B Amount Ratio: 55,96%

=== Overall Summary ===
  Total Parcels       : 105.984
  Total B2B Parcels   : 19.188
  Total Amount        : 196.885
  Total B2B Amount    : 47.252
  B2B Parcel Ratio    : 18,10%
  B2B Amount Ratio    : 24,00%

2024-05-28 15:54:27.205 [main] INFO  hagrid.demand.ParcelGenerator - Parcel generation completed.
2024-05-28 15:54:27.205 [main] INFO  hagrid.App - Parcel generation completed.
2024-05-28 15:54:27.206 [main] INFO  hagrid.App - Application finished.
2024-05-28 18:13:18.318 [main] INFO  hagrid.App - Starting application...
2024-05-28 18:13:18.562 [main] INFO  org.matsim.core.utils.io.IOUtils - Resolved phd/input/config.xml to phd\input\config.xml
2024-05-28 18:13:18.567 [main] INFO  org.matsim.core.config.Config - setting context to [file:/C:/Users/bienzeisler/Documents/GitHub/HAGRID/]
2024-05-28 18:13:18.769 [main] INFO  org.hibernate.validator.internal.util.Version - HV000001: Hibernate Validator 7.0.1.Final
2024-05-28 18:13:19.207 [main] INFO  org.matsim.core.utils.io.MatsimXmlParser - starting to parse xml from url file:/C:/Users/bienzeisler/Documents/GitHub/HAGRID/phd/input/config.xml ...
2024-05-28 18:13:19.306 [main] INFO  org.matsim.core.config.ConfigReader - using config_v2-reader
2024-05-28 18:13:19.309 [main] INFO  org.matsim.core.utils.io.MatsimXmlParser - Trying to load http://www.matsim.org/files/dtd/config_v2.dtd. In some cases (e.g. network interface up but no connection), this may take a bit.
2024-05-28 18:13:19.467 [main] INFO  org.matsim.core.config.groups.GlobalConfigGroup - setting number of threads to: 2
2024-05-28 18:13:19.520 [main] WARN  org.matsim.core.config.groups.ScoringConfigGroup - Setting pathSizeLogitBeta different from zero is experimental.  KN, Sep'08
2024-05-28 18:13:19.559 [main] INFO  org.matsim.core.config.groups.ScoringConfigGroup - scoring parameters for subpopulation null were just replaced.
2024-05-28 18:13:19.570 [main] WARN  org.matsim.core.config.groups.RoutingConfigGroup - The first mode routing (= teleported mode) params that are explicitly defined clear the default mode routing (= teleported mode) params.  If you want to avoid this 
2024-05-28 18:13:19.571 [main] WARN  org.matsim.core.config.groups.RoutingConfigGroup -     warning, use clearTeleportedModeParams(true) in code, and "clearDefaultTeleportedModeParams"=true in xml config.
2024-05-28 18:13:19.622 [main] INFO  org.matsim.core.config.Config - setting context to [file:/C:/Users/bienzeisler/Documents/GitHub/HAGRID/phd/input/config.xml]
2024-05-28 18:13:19.704 [main] INFO  org.matsim.core.scenario.ScenarioLoaderImpl - no facilities file set in config, therefore not loading any facilities.  This is not a problem except if you are using facilities
2024-05-28 18:13:19.705 [main] INFO  org.matsim.core.scenario.ScenarioLoaderImpl - no facility-attributes file set in config, not loading any facility attributes
2024-05-28 18:13:19.705 [main] INFO  org.matsim.core.scenario.ScenarioLoaderImpl - no population file set in config, not able to load population
2024-05-28 18:13:19.706 [main] INFO  org.matsim.core.scenario.ScenarioLoaderImpl - no person-attributes file set in config, not loading any person attributes
2024-05-28 18:13:19.706 [main] INFO  org.matsim.core.scenario.ScenarioLoaderImpl - no households file set in config, not loading households
2024-05-28 18:13:19.708 [main] INFO  org.matsim.core.scenario.ScenarioLoaderImpl - no transit schedule file set in config, not loading any transit schedule
2024-05-28 18:13:19.709 [main] INFO  org.matsim.core.scenario.ScenarioLoaderImpl - no transit vehicles file set in config, not loading any transit vehicles
2024-05-28 18:13:19.982 [main] INFO  hagrid.App - Initializing NetworkProcessor...
2024-05-28 18:13:20.036 [main] INFO  hagrid.App - Starting network processing...
2024-05-28 18:13:20.037 [main] INFO  hagrid.demand.NetworkProcessor - Starting network processing...
2024-05-28 18:13:20.064 [main] INFO  hagrid.demand.NetworkProcessor - Reading the network file from path: phd/input/reduced_network.xml.gz
2024-05-28 18:13:20.071 [main] INFO  org.matsim.core.utils.io.MatsimXmlParser - starting to parse xml from file phd/input/reduced_network.xml.gz ...
2024-05-28 18:13:20.075 [main] INFO  org.matsim.core.utils.io.IOUtils - Resolved phd/input/reduced_network.xml.gz to phd\input\reduced_network.xml.gz
2024-05-28 18:13:20.451 [main] INFO  org.matsim.core.network.io.MatsimNetworkReader - using network_v2-reader.
2024-05-28 18:13:20.455 [main] INFO  org.matsim.core.utils.io.MatsimXmlParser - Trying to load http://www.matsim.org/files/dtd/network_v2.dtd. In some cases (e.g. network interface up but no connection), this may take a bit.
2024-05-28 18:13:20.501 [main] INFO  org.matsim.core.network.NetworkImpl -  node # 1
2024-05-28 18:13:20.504 [main] INFO  org.matsim.core.network.NetworkImpl -  node # 4
2024-05-28 18:13:20.507 [main] INFO  org.matsim.core.network.NetworkImpl -  node # 16
2024-05-28 18:13:20.522 [main] INFO  org.matsim.core.network.NetworkImpl -  node # 64
2024-05-28 18:13:20.586 [main] INFO  org.matsim.core.network.NetworkImpl -  node # 256
2024-05-28 18:13:20.647 [main] INFO  org.matsim.core.network.NetworkImpl -  node # 1024
2024-05-28 18:13:20.767 [main] INFO  org.matsim.core.network.NetworkImpl -  node # 4096
2024-05-28 18:13:21.197 [main] INFO  org.matsim.core.network.NetworkImpl -  node # 16384
2024-05-28 18:13:21.227 [main] INFO  org.matsim.core.network.NetworkImpl -  link # 1
2024-05-28 18:13:21.238 [main] INFO  org.matsim.core.network.NetworkImpl -  link # 4
2024-05-28 18:13:21.259 [main] INFO  org.matsim.core.network.NetworkImpl -  link # 16
2024-05-28 18:13:21.303 [main] INFO  org.matsim.core.network.NetworkImpl -  link # 64
2024-05-28 18:13:21.468 [main] INFO  org.matsim.core.network.NetworkImpl -  link # 256
2024-05-28 18:13:21.672 [main] INFO  org.matsim.core.network.NetworkImpl -  link # 1024
2024-05-28 18:13:21.696 [main] WARN  org.matsim.api.core.v01.network.Link - length=0.0 of link id 1185132 may cause problems
2024-05-28 18:13:21.702 [main] WARN  org.matsim.api.core.v01.network.Link -  Future occurences of this logging statement are suppressed.
2024-05-28 18:13:22.259 [main] INFO  org.matsim.core.network.NetworkImpl -  link # 4096
2024-05-28 18:13:23.284 [main] INFO  org.matsim.core.network.NetworkImpl -  link # 16384
2024-05-28 18:13:23.417 [main] INFO  hagrid.demand.NetworkProcessor - Adjusting link lengths and free speeds...
2024-05-28 18:13:23.437 [main] INFO  hagrid.demand.NetworkProcessor - Link adjustments completed.
2024-05-28 18:13:23.438 [main] INFO  hagrid.demand.NetworkProcessor - Filtering network to include only car mode links...
2024-05-28 18:13:23.439 [main] INFO  org.matsim.core.config.Config - setting context to [file:/C:/Users/bienzeisler/Documents/GitHub/HAGRID/]
2024-05-28 18:13:23.456 [main] INFO  org.matsim.core.network.NetworkImpl -  node # 1
2024-05-28 18:13:23.461 [main] INFO  org.matsim.core.network.NetworkImpl -  node # 4
2024-05-28 18:13:23.463 [main] INFO  org.matsim.core.network.NetworkImpl -  node # 16
2024-05-28 18:13:23.465 [main] INFO  org.matsim.core.network.NetworkImpl -  node # 64
2024-05-28 18:13:23.467 [main] INFO  org.matsim.core.network.NetworkImpl -  node # 256
2024-05-28 18:13:23.472 [main] INFO  org.matsim.core.network.NetworkImpl -  node # 1024
2024-05-28 18:13:23.479 [main] INFO  org.matsim.core.network.NetworkImpl -  node # 4096
2024-05-28 18:13:23.505 [main] INFO  org.matsim.core.network.NetworkImpl -  node # 16384
2024-05-28 18:13:23.510 [main] INFO  org.matsim.core.network.NetworkImpl -  link # 1
2024-05-28 18:13:23.512 [main] INFO  org.matsim.core.network.NetworkImpl -  link # 4
2024-05-28 18:13:23.514 [main] INFO  org.matsim.core.network.NetworkImpl -  link # 16
2024-05-28 18:13:23.516 [main] INFO  org.matsim.core.network.NetworkImpl -  link # 64
2024-05-28 18:13:23.527 [main] INFO  org.matsim.core.network.NetworkImpl -  link # 256
2024-05-28 18:13:23.551 [main] INFO  org.matsim.core.network.NetworkImpl -  link # 1024
2024-05-28 18:13:23.598 [main] INFO  org.matsim.core.network.NetworkImpl -  link # 4096
2024-05-28 18:13:23.762 [main] INFO  org.matsim.core.network.NetworkImpl -  link # 16384
2024-05-28 18:13:23.842 [main] INFO  hagrid.demand.NetworkProcessor - Car mode network filtering completed.
2024-05-28 18:13:23.848 [main] INFO  hagrid.demand.NetworkProcessor - Creating parcel service network based on custom criteria...
2024-05-28 18:13:23.852 [main] INFO  org.matsim.core.config.Config - setting context to [file:/C:/Users/bienzeisler/Documents/GitHub/HAGRID/]
2024-05-28 18:13:23.874 [main] INFO  org.matsim.core.network.NetworkImpl -  node # 1
2024-05-28 18:13:23.877 [main] INFO  org.matsim.core.network.NetworkImpl -  node # 4
2024-05-28 18:13:23.879 [main] INFO  org.matsim.core.network.NetworkImpl -  node # 16
2024-05-28 18:13:23.880 [main] INFO  org.matsim.core.network.NetworkImpl -  node # 64
2024-05-28 18:13:23.881 [main] INFO  org.matsim.core.network.NetworkImpl -  node # 256
2024-05-28 18:13:23.883 [main] INFO  org.matsim.core.network.NetworkImpl -  node # 1024
2024-05-28 18:13:23.886 [main] INFO  org.matsim.core.network.NetworkImpl -  node # 4096
2024-05-28 18:13:23.892 [main] INFO  hagrid.demand.NetworkProcessor - Total number of links in the carFilteredNetwork: 19063
2024-05-28 18:13:23.894 [main] INFO  org.matsim.core.network.NetworkImpl -  link # 1
2024-05-28 18:13:23.897 [main] INFO  org.matsim.core.network.NetworkImpl -  link # 4
2024-05-28 18:13:23.898 [main] INFO  org.matsim.core.network.NetworkImpl -  link # 16
2024-05-28 18:13:23.900 [main] INFO  org.matsim.core.network.NetworkImpl -  link # 64
2024-05-28 18:13:23.903 [main] INFO  org.matsim.core.network.NetworkImpl -  link # 256
2024-05-28 18:13:23.914 [main] INFO  org.matsim.core.network.NetworkImpl -  link # 1024
2024-05-28 18:13:23.925 [main] INFO  org.matsim.core.network.NetworkImpl -  link # 4096
2024-05-28 18:13:23.960 [main] INFO  org.matsim.core.network.NetworkImpl -  link # 16384
2024-05-28 18:13:23.968 [main] INFO  hagrid.demand.NetworkProcessor - Parcel service network created successfully with 18730 links added.
2024-05-28 18:13:23.972 [main] INFO  hagrid.demand.NetworkProcessor - Difference in number of links between carFilteredNetwork and parcel service network: 333
2024-05-28 18:13:23.973 [main] INFO  hagrid.App - Network processing completed. Subnetworks created.
2024-05-28 18:13:23.974 [main] INFO  hagrid.App - Initializing LogisticsDataProcessor...
2024-05-28 18:13:23.987 [main] INFO  hagrid.App - Starting logistics data processing...
2024-05-28 18:13:23.988 [main] INFO  hagrid.demand.LogisticsDataProcessor - Reading logistics data...
2024-05-28 18:13:23.990 [main] INFO  hagrid.demand.LogisticsDataProcessor - Reading hub data from file: phd/input/hubs/KEP-hubs_v3.csv
2024-05-28 18:13:23.992 [main] INFO  hagrid.demand.LogisticsDataProcessor - Reading data from file: phd/input/hubs/KEP-hubs_v3.csv
2024-05-28 18:13:24.038 [main] INFO  org.matsim.core.network.NetworkImpl - building LinkQuadTree for nodes: xrange(288335.4442501353,953227.577157235); yrange(5242845.444958333,6003702.4934690865)
2024-05-28 18:13:24.179 [main] INFO  org.matsim.core.network.NetworkImpl - Building LinkQuadTree took 0.166 seconds.
2024-05-28 18:13:24.323 [main] INFO  hagrid.demand.LogisticsDataProcessor - Read 25 entries from file: phd/input/hubs/KEP-hubs_v3.csv
2024-05-28 18:13:24.386 [main] INFO  hagrid.demand.LogisticsDataProcessor - Reading parcel locker data from file: phd/input/hubs/standorte_von_dhl.de.csv
2024-05-28 18:13:24.434 [main] INFO  hagrid.demand.LogisticsDataProcessor - Reading data from file: phd/input/hubs/standorte_von_dhl.de.csv
2024-05-28 18:13:29.656 [main] INFO  org.matsim.core.network.NetworkImpl - building LinkQuadTree for nodes: xrange(286579.5670514173,953227.577157235); yrange(5242845.444958333,6018233.358636351)
2024-05-28 18:13:29.723 [main] INFO  org.matsim.core.network.NetworkImpl - Building LinkQuadTree took 0.08 seconds.
2024-05-28 18:13:30.143 [main] INFO  hagrid.demand.LogisticsDataProcessor - Read 308 entries from file: phd/input/hubs/standorte_von_dhl.de.csv
2024-05-28 18:13:30.144 [main] INFO  hagrid.demand.LogisticsDataProcessor - Reading shipping point data from folder: phd/input/hubs/standorte_von_paket.net/
2024-05-28 18:13:30.146 [main] INFO  hagrid.demand.LogisticsDataProcessor - Reading data from file: phd/input/hubs/standorte_von_paket.net/dhl_paketnet_list.csv
2024-05-28 18:13:30.318 [main] INFO  hagrid.demand.LogisticsDataProcessor - Read 301 entries from file: phd/input/hubs/standorte_von_paket.net/dhl_paketnet_list.csv
2024-05-28 18:13:30.319 [main] INFO  hagrid.demand.LogisticsDataProcessor - Reading data from file: phd/input/hubs/standorte_von_paket.net/dpd_paketnet_list.csv
2024-05-28 18:13:30.367 [main] INFO  hagrid.demand.LogisticsDataProcessor - Read 95 entries from file: phd/input/hubs/standorte_von_paket.net/dpd_paketnet_list.csv
2024-05-28 18:13:30.369 [main] INFO  hagrid.demand.LogisticsDataProcessor - Reading data from file: phd/input/hubs/standorte_von_paket.net/gls_paketnet_list.csv
2024-05-28 18:13:30.416 [main] INFO  hagrid.demand.LogisticsDataProcessor - Read 92 entries from file: phd/input/hubs/standorte_von_paket.net/gls_paketnet_list.csv
2024-05-28 18:13:30.418 [main] INFO  hagrid.demand.LogisticsDataProcessor - Reading data from file: phd/input/hubs/standorte_von_paket.net/hermes_paketnet_list.csv
2024-05-28 18:13:30.494 [main] INFO  hagrid.demand.LogisticsDataProcessor - Read 200 entries from file: phd/input/hubs/standorte_von_paket.net/hermes_paketnet_list.csv
2024-05-28 18:13:30.495 [main] INFO  hagrid.demand.LogisticsDataProcessor - Reading data from file: phd/input/hubs/standorte_von_paket.net/ups_paketnet_list.csv
2024-05-28 18:13:30.516 [main] INFO  hagrid.demand.LogisticsDataProcessor - Read 52 entries from file: phd/input/hubs/standorte_von_paket.net/ups_paketnet_list.csv
2024-05-28 18:13:30.516 [main] INFO  hagrid.demand.LogisticsDataProcessor - Logistics data processing completed.
2024-05-28 18:13:30.517 [main] INFO  hagrid.App - Logistics data processing completed.
2024-05-28 18:13:30.517 [main] INFO  hagrid.App - Initializing DemandProcessor...
2024-05-28 18:13:30.538 [main] INFO  hagrid.App - Starting demand data processing...
2024-05-28 18:13:30.539 [main] INFO  hagrid.demand.DemandProcessor - Reading freight demand data from file: T:/bienzeisler/USEfUL-XT/matsim-hanover/01_MATSimModelCreator/vm-hochrechnung_matsim-punkte_epsg25832_mit_plz_v4_b2b.shp
2024-05-28 18:13:30.544 [main] WARN  org.matsim.core.utils.gis.GeoFileReader - Unsafe method! store.dispose() is not called from within this method
2024-05-28 18:13:31.725 [main] INFO  org.matsim.core.utils.gis.GeoFileReader - features to read #46565
2024-05-28 18:13:31.754 [main] INFO  org.matsim.core.utils.misc.Counter - features read #1
2024-05-28 18:13:31.756 [main] INFO  org.matsim.core.utils.misc.Counter - features read #2
2024-05-28 18:13:31.758 [main] INFO  org.matsim.core.utils.misc.Counter - features read #4
2024-05-28 18:13:31.766 [main] INFO  org.matsim.core.utils.misc.Counter - features read #8
2024-05-28 18:13:31.772 [main] INFO  org.matsim.core.utils.misc.Counter - features read #16
2024-05-28 18:13:31.786 [main] INFO  org.matsim.core.utils.misc.Counter - features read #32
2024-05-28 18:13:31.803 [main] INFO  org.matsim.core.utils.misc.Counter - features read #64
2024-05-28 18:13:31.843 [main] INFO  org.matsim.core.utils.misc.Counter - features read #128
2024-05-28 18:13:31.898 [main] INFO  org.matsim.core.utils.misc.Counter - features read #256
2024-05-28 18:13:31.956 [main] INFO  org.matsim.core.utils.misc.Counter - features read #512
2024-05-28 18:13:32.025 [main] INFO  org.matsim.core.utils.misc.Counter - features read #1024
2024-05-28 18:13:32.088 [main] INFO  org.matsim.core.utils.misc.Counter - features read #2048
2024-05-28 18:13:32.200 [main] INFO  org.matsim.core.utils.misc.Counter - features read #4096
2024-05-28 18:13:32.440 [main] INFO  org.matsim.core.utils.misc.Counter - features read #8192
2024-05-28 18:13:32.731 [main] INFO  org.matsim.core.utils.misc.Counter - features read #16384
2024-05-28 18:13:33.158 [main] INFO  org.matsim.core.utils.misc.Counter - features read #32768
2024-05-28 18:13:33.433 [main] INFO  org.matsim.core.utils.misc.Counter - features read #46565
2024-05-28 18:13:34.368 [main] INFO  hagrid.demand.DemandProcessor - Total Number of Deliveries: 105984
2024-05-28 18:13:34.369 [main] INFO  hagrid.demand.DemandProcessor - Total Number of Parcels: 196885
2024-05-28 18:13:34.482 [main] INFO  hagrid.demand.DemandProcessor - Demand Border: 600
2024-05-28 18:13:34.486 [main] INFO  hagrid.demand.DemandProcessor - Need for Split: dhl_31275: Number of Deliveries: 1557
2024-05-28 18:13:34.509 [main] INFO  hagrid.demand.DemandProcessor - Initializing KMeans clustering with 3 clusters...
2024-05-28 18:13:34.891 [main] INFO  hagrid.demand.DemandProcessor - Cluster 1: 519 features
2024-05-28 18:13:34.892 [main] INFO  hagrid.demand.DemandProcessor - Cluster 2: 519 features
2024-05-28 18:13:34.894 [main] INFO  hagrid.demand.DemandProcessor - Cluster 3: 519 features
2024-05-28 18:13:34.895 [main] INFO  hagrid.demand.DemandProcessor - Total number of clusters created: 3
2024-05-28 18:13:36.483 [main] INFO  hagrid.demand.DemandProcessor - Chart saved successfully at: phd/output/demand_clustering/ClusterResults_dhl_31275.png
2024-05-28 18:13:36.496 [main] INFO  hagrid.demand.DemandProcessor - Assigned Demand for new Carrier dhl_31275_0: 519
2024-05-28 18:13:36.499 [main] INFO  hagrid.demand.DemandProcessor - Assigned Demand for new Carrier dhl_31275_1: 519
2024-05-28 18:13:36.501 [main] INFO  hagrid.demand.DemandProcessor - Assigned Demand for new Carrier dhl_31275_2: 519
2024-05-28 18:13:36.502 [main] INFO  hagrid.demand.DemandProcessor - Need for Split: dhl_30880: Number of Deliveries: 950
2024-05-28 18:13:36.507 [main] INFO  hagrid.demand.DemandProcessor - Initializing KMeans clustering with 2 clusters...
2024-05-28 18:13:36.538 [main] INFO  hagrid.demand.DemandProcessor - Cluster 1: 475 features
2024-05-28 18:13:36.563 [main] INFO  hagrid.demand.DemandProcessor - Cluster 2: 475 features
2024-05-28 18:13:36.568 [main] INFO  hagrid.demand.DemandProcessor - Total number of clusters created: 2
2024-05-28 18:13:37.244 [main] INFO  hagrid.demand.DemandProcessor - Chart saved successfully at: phd/output/demand_clustering/ClusterResults_dhl_30880.png
2024-05-28 18:13:37.246 [main] INFO  hagrid.demand.DemandProcessor - Assigned Demand for new Carrier dhl_30880_0: 475
2024-05-28 18:13:37.250 [main] INFO  hagrid.demand.DemandProcessor - Assigned Demand for new Carrier dhl_30880_1: 475
2024-05-28 18:13:37.252 [main] INFO  hagrid.demand.DemandProcessor - Need for Split: dhl_31311: Number of Deliveries: 839
2024-05-28 18:13:37.256 [main] INFO  hagrid.demand.DemandProcessor - Initializing KMeans clustering with 2 clusters...
2024-05-28 18:13:37.386 [main] INFO  hagrid.demand.DemandProcessor - Cluster 1: 419 features
2024-05-28 18:13:37.397 [main] INFO  hagrid.demand.DemandProcessor - Cluster 2: 420 features
2024-05-28 18:13:37.412 [main] INFO  hagrid.demand.DemandProcessor - Total number of clusters created: 2
2024-05-28 18:13:38.261 [main] INFO  hagrid.demand.DemandProcessor - Chart saved successfully at: phd/output/demand_clustering/ClusterResults_dhl_31311.png
2024-05-28 18:13:38.264 [main] INFO  hagrid.demand.DemandProcessor - Assigned Demand for new Carrier dhl_31311_0: 419
2024-05-28 18:13:38.265 [main] INFO  hagrid.demand.DemandProcessor - Assigned Demand for new Carrier dhl_31311_1: 420
2024-05-28 18:13:38.266 [main] INFO  hagrid.demand.DemandProcessor - Need for Split: ups_31535: Number of Deliveries: 719
2024-05-28 18:13:38.268 [main] INFO  hagrid.demand.DemandProcessor - Initializing KMeans clustering with 2 clusters...
2024-05-28 18:13:38.282 [main] INFO  hagrid.demand.DemandProcessor - Cluster 1: 360 features
2024-05-28 18:13:38.284 [main] INFO  hagrid.demand.DemandProcessor - Cluster 2: 359 features
2024-05-28 18:13:38.289 [main] INFO  hagrid.demand.DemandProcessor - Total number of clusters created: 2
2024-05-28 18:13:38.646 [main] INFO  hagrid.demand.DemandProcessor - Chart saved successfully at: phd/output/demand_clustering/ClusterResults_ups_31535.png
2024-05-28 18:13:38.647 [main] INFO  hagrid.demand.DemandProcessor - Assigned Demand for new Carrier ups_31535_0: 360
2024-05-28 18:13:38.649 [main] INFO  hagrid.demand.DemandProcessor - Assigned Demand for new Carrier ups_31535_1: 359
2024-05-28 18:13:38.650 [main] INFO  hagrid.demand.DemandProcessor - Need for Split: ups_31515: Number of Deliveries: 668
2024-05-28 18:13:38.653 [main] INFO  hagrid.demand.DemandProcessor - Initializing KMeans clustering with 2 clusters...
2024-05-28 18:13:38.686 [main] INFO  hagrid.demand.DemandProcessor - Cluster 1: 334 features
2024-05-28 18:13:38.687 [main] INFO  hagrid.demand.DemandProcessor - Cluster 2: 334 features
2024-05-28 18:13:38.688 [main] INFO  hagrid.demand.DemandProcessor - Total number of clusters created: 2
2024-05-28 18:13:39.034 [main] INFO  hagrid.demand.DemandProcessor - Chart saved successfully at: phd/output/demand_clustering/ClusterResults_ups_31515.png
2024-05-28 18:13:39.036 [main] INFO  hagrid.demand.DemandProcessor - Assigned Demand for new Carrier ups_31515_0: 334
2024-05-28 18:13:39.037 [main] INFO  hagrid.demand.DemandProcessor - Assigned Demand for new Carrier ups_31515_1: 334
2024-05-28 18:13:39.040 [main] INFO  hagrid.demand.DemandProcessor - Need for Split: dhl_30419: Number of Deliveries: 838
2024-05-28 18:13:39.043 [main] INFO  hagrid.demand.DemandProcessor - Initializing KMeans clustering with 2 clusters...
2024-05-28 18:13:39.108 [main] INFO  hagrid.demand.DemandProcessor - Cluster 1: 419 features
2024-05-28 18:13:39.115 [main] INFO  hagrid.demand.DemandProcessor - Cluster 2: 419 features
2024-05-28 18:13:39.117 [main] INFO  hagrid.demand.DemandProcessor - Total number of clusters created: 2
2024-05-28 18:13:39.484 [main] INFO  hagrid.demand.DemandProcessor - Chart saved successfully at: phd/output/demand_clustering/ClusterResults_dhl_30419.png
2024-05-28 18:13:39.486 [main] INFO  hagrid.demand.DemandProcessor - Assigned Demand for new Carrier dhl_30419_0: 419
2024-05-28 18:13:39.487 [main] INFO  hagrid.demand.DemandProcessor - Assigned Demand for new Carrier dhl_30419_1: 419
2024-05-28 18:13:39.488 [main] INFO  hagrid.demand.DemandProcessor - Need for Split: dhl_30519: Number of Deliveries: 650
2024-05-28 18:13:39.489 [main] INFO  hagrid.demand.DemandProcessor - Initializing KMeans clustering with 2 clusters...
2024-05-28 18:13:39.509 [main] INFO  hagrid.demand.DemandProcessor - Cluster 1: 325 features
2024-05-28 18:13:39.511 [main] INFO  hagrid.demand.DemandProcessor - Cluster 2: 325 features
2024-05-28 18:13:39.514 [main] INFO  hagrid.demand.DemandProcessor - Total number of clusters created: 2
2024-05-28 18:13:39.853 [main] INFO  hagrid.demand.DemandProcessor - Chart saved successfully at: phd/output/demand_clustering/ClusterResults_dhl_30519.png
2024-05-28 18:13:39.856 [main] INFO  hagrid.demand.DemandProcessor - Assigned Demand for new Carrier dhl_30519_0: 325
2024-05-28 18:13:39.859 [main] INFO  hagrid.demand.DemandProcessor - Assigned Demand for new Carrier dhl_30519_1: 325
2024-05-28 18:13:39.861 [main] INFO  hagrid.demand.DemandProcessor - Need for Split: dhl_30938: Number of Deliveries: 861
2024-05-28 18:13:39.862 [main] INFO  hagrid.demand.DemandProcessor - Initializing KMeans clustering with 2 clusters...
2024-05-28 18:13:39.899 [main] INFO  hagrid.demand.DemandProcessor - Cluster 1: 430 features
2024-05-28 18:13:39.901 [main] INFO  hagrid.demand.DemandProcessor - Cluster 2: 431 features
2024-05-28 18:13:39.905 [main] INFO  hagrid.demand.DemandProcessor - Total number of clusters created: 2
2024-05-28 18:13:40.223 [main] INFO  hagrid.demand.DemandProcessor - Chart saved successfully at: phd/output/demand_clustering/ClusterResults_dhl_30938.png
2024-05-28 18:13:40.224 [main] INFO  hagrid.demand.DemandProcessor - Assigned Demand for new Carrier dhl_30938_0: 430
2024-05-28 18:13:40.226 [main] INFO  hagrid.demand.DemandProcessor - Assigned Demand for new Carrier dhl_30938_1: 431
2024-05-28 18:13:40.228 [main] INFO  hagrid.demand.DemandProcessor - Need for Split: dhl_30916: Number of Deliveries: 945
2024-05-28 18:13:40.230 [main] INFO  hagrid.demand.DemandProcessor - Initializing KMeans clustering with 2 clusters...
2024-05-28 18:13:40.266 [main] INFO  hagrid.demand.DemandProcessor - Cluster 1: 472 features
2024-05-28 18:13:40.269 [main] INFO  hagrid.demand.DemandProcessor - Cluster 2: 473 features
2024-05-28 18:13:40.271 [main] INFO  hagrid.demand.DemandProcessor - Total number of clusters created: 2
2024-05-28 18:13:40.665 [main] INFO  hagrid.demand.DemandProcessor - Chart saved successfully at: phd/output/demand_clustering/ClusterResults_dhl_30916.png
2024-05-28 18:13:40.669 [main] INFO  hagrid.demand.DemandProcessor - Assigned Demand for new Carrier dhl_30916_0: 472
2024-05-28 18:13:40.671 [main] INFO  hagrid.demand.DemandProcessor - Assigned Demand for new Carrier dhl_30916_1: 473
2024-05-28 18:13:40.672 [main] INFO  hagrid.demand.DemandProcessor - Need for Split: ups_31275: Number of Deliveries: 729
2024-05-28 18:13:40.673 [main] INFO  hagrid.demand.DemandProcessor - Initializing KMeans clustering with 2 clusters...
2024-05-28 18:13:40.694 [main] INFO  hagrid.demand.DemandProcessor - Cluster 1: 364 features
2024-05-28 18:13:40.698 [main] INFO  hagrid.demand.DemandProcessor - Cluster 2: 365 features
2024-05-28 18:13:40.699 [main] INFO  hagrid.demand.DemandProcessor - Total number of clusters created: 2
2024-05-28 18:13:40.969 [main] INFO  hagrid.demand.DemandProcessor - Chart saved successfully at: phd/output/demand_clustering/ClusterResults_ups_31275.png
[...]
2024-05-28 18:49:02.000 [main] INFO  hagrid.demand.DemandProcessor - Need for Split: dhl_30966: Number of Deliveries: 648
2024-05-28 18:49:02.000 [main] INFO  hagrid.demand.DemandProcessor - Initializing KMeans clustering with 2 clusters...
2024-05-28 18:49:02.000 [main] INFO  hagrid.demand.DemandProcessor - Cluster 1: 324 features
2024-05-28 18:49:02.000 [main] INFO  hagrid.demand.DemandProcessor - Cluster 2: 324 features
2024-05-28 18:49:02.000 [main] INFO  hagrid.demand.DemandProcessor - Total number of clusters created: 2
2024-05-28 18:49:02.127 [main] INFO  hagrid.demand.DemandProcessor - Chart saved successfully at: phd/output/demand_clustering/ClusterResults_dhl_30966.png
2024-05-28 18:49:02.127 [main] INFO  hagrid.demand.DemandProcessor - Assigned Demand for new Carrier dhl_30966_0: 324
2024-05-28 18:49:02.127 [main] INFO  hagrid.demand.DemandProcessor - Assigned Demand for new Carrier dhl_30966_1: 324
2024-05-28 18:49:02.127 [main] INFO  hagrid.demand.DemandProcessor - Need for Split: dhl_30900: Number of Deliveries: 1308
2024-05-28 18:49:02.127 [main] INFO  hagrid.demand.DemandProcessor - Initializing KMeans clustering with 3 clusters...
2024-05-28 18:49:02.148 [main] INFO  hagrid.demand.DemandProcessor - Cluster 1: 436 features
2024-05-28 18:49:02.149 [main] INFO  hagrid.demand.DemandProcessor - Cluster 2: 436 features
2024-05-28 18:49:02.149 [main] INFO  hagrid.demand.DemandProcessor - Cluster 3: 436 features
2024-05-28 18:49:02.151 [main] INFO  hagrid.demand.DemandProcessor - Total number of clusters created: 3
2024-05-28 18:49:02.342 [main] INFO  hagrid.demand.DemandProcessor - Chart saved successfully at: phd/output/demand_clustering/ClusterResults_dhl_30900.png
2024-05-28 18:49:02.342 [main] INFO  hagrid.demand.DemandProcessor - Assigned Demand for new Carrier dhl_30900_0: 436
2024-05-28 18:49:02.344 [main] INFO  hagrid.demand.DemandProcessor - Assigned Demand for new Carrier dhl_30900_1: 436
2024-05-28 18:49:02.344 [main] INFO  hagrid.demand.DemandProcessor - Assigned Demand for new Carrier dhl_30900_2: 436
2024-05-28 18:49:02.346 [main] INFO  hagrid.demand.DemandProcessor - Need for Split: dhl_31319: Number of Deliveries: 945
2024-05-28 18:49:02.346 [main] INFO  hagrid.demand.DemandProcessor - Initializing KMeans clustering with 2 clusters...
2024-05-28 18:49:02.348 [main] INFO  hagrid.demand.DemandProcessor - Cluster 1: 472 features
2024-05-28 18:49:02.348 [main] INFO  hagrid.demand.DemandProcessor - Cluster 2: 473 features
2024-05-28 18:49:02.348 [main] INFO  hagrid.demand.DemandProcessor - Total number of clusters created: 2
2024-05-28 18:49:02.509 [main] INFO  hagrid.demand.DemandProcessor - Chart saved successfully at: phd/output/demand_clustering/ClusterResults_dhl_31319.png
2024-05-28 18:49:02.516 [main] INFO  hagrid.demand.DemandProcessor - Assigned Demand for new Carrier dhl_31319_0: 472
2024-05-28 18:49:02.516 [main] INFO  hagrid.demand.DemandProcessor - Assigned Demand for new Carrier dhl_31319_1: 473
2024-05-28 18:49:02.593 [main] INFO  hagrid.demand.DemandProcessor - Total Number of Deliveries: 105984
2024-05-28 18:49:02.593 [main] INFO  hagrid.demand.DemandProcessor - Total Number of Parcels: 196885
2024-05-28 18:49:02.593 [main] INFO  hagrid.demand.DemandProcessor - Validation completed successfully: Total number of deliveries and parcels match.
2024-05-28 18:49:02.601 [main] INFO  hagrid.demand.DemandProcessor - Freight demand data processing completed.
2024-05-28 18:49:02.601 [main] INFO  hagrid.App - Demand data processing completed.
2024-05-28 18:49:02.602 [main] INFO  hagrid.App - Initializing ParcelGenerator...
2024-05-28 18:49:02.602 [main] INFO  hagrid.App - Starting parcel generation based on sorted Demand...
2024-05-28 18:49:02.602 [main] INFO  hagrid.demand.DeliveryGenerator - Generating parcels from sorted carrier demand...
2024-05-28 18:49:02.610 [main] INFO  hagrid.demand.DeliveryGenerator - Total Parcels from carrier demand: 105984
2024-05-28 18:49:03.676 [main] INFO  hagrid.demand.DeliveryGenerator - === Delivery Statistics by Provider ===
Provider: amazon
  Total Deliveries     : 12.592
  B2B Deliveries       : 283
  Total Parcels        : 18.401
  B2B Parcels          : 532
  B2B Delivery Ratio   : 2,25%
  B2B Parcel Ratio     : 2,89%
  Average Weight       : 4,10
  Average B2B Weight   : 8,52

Provider: fedex
  Total Deliveries     : 9.911
  B2B Deliveries       : 2.115
  Total Parcels        : 13.225
  B2B Parcels          : 3.415
  B2B Delivery Ratio   : 21,34%
  B2B Parcel Ratio     : 25,82%
  Average Weight       : 5,09
  Average B2B Weight   : 8,35

Provider: ups
  Total Deliveries     : 16.314
  B2B Deliveries       : 3.286
  Total Parcels        : 26.491
  B2B Parcels          : 6.854
  B2B Delivery Ratio   : 20,14%
  B2B Parcel Ratio     : 25,87%
  Average Weight       : 5,14
  Average B2B Weight   : 8,66

Provider: dpd
  Total Deliveries     : 14.390
  B2B Deliveries       : 3.027
  Total Parcels        : 22.122
  B2B Parcels          : 5.919
  B2B Delivery Ratio   : 21,04%
  B2B Parcel Ratio     : 26,76%
  Average Weight       : 5,24
  Average B2B Weight   : 8,74

Provider: dhl
  Total Deliveries     : 31.013
  B2B Deliveries       : 5.878
  Total Parcels        : 86.362
  B2B Parcels          : 22.822
  B2B Delivery Ratio   : 18,95%
  B2B Parcel Ratio     : 26,43%
  Average Weight       : 5,16
  Average B2B Weight   : 8,51

Provider: hermes
  Total Deliveries     : 9.570
  B2B Deliveries       : 2.091
  Total Parcels        : 12.603
  B2B Parcels          : 3.160
  B2B Delivery Ratio   : 21,85%
  B2B Parcel Ratio     : 25,07%
  Average Weight       : 5,09
  Average B2B Weight   : 8,38

Provider: gls
  Total Deliveries     : 12.194
  B2B Deliveries       : 2.508
  Total Parcels        : 17.681
  B2B Parcels          : 4.550
  B2B Delivery Ratio   : 20,57%
  B2B Parcel Ratio     : 25,73%
  Average Weight       : 5,10
  Average B2B Weight   : 8,39

=== Summary by Postal Code ===
Postal Code: 30938
  Total Deliveries     : 2.568
  B2B Deliveries       : 493
  Total Parcels        : 4.437
  B2B Parcels          : 1.447
  B2B Delivery Ratio   : 19,20%
  B2B Parcel Ratio     : 32,61%
  Average Weight       : 5,46
  Average B2B Weight   : 8,72

Postal Code: 31311
  Total Deliveries     : 2.479
  B2B Deliveries       : 362
  Total Parcels        : 3.414
  B2B Parcels          : 550
  B2B Delivery Ratio   : 14,60%
  B2B Parcel Ratio     : 16,11%
  Average Weight       : 4,67
  Average B2B Weight   : 8,84

Postal Code: 30982
  Total Deliveries     : 1.708
  B2B Deliveries       : 293
  Total Parcels        : 2.499
  B2B Parcels          : 412
  B2B Delivery Ratio   : 17,15%
  B2B Parcel Ratio     : 16,49%
  Average Weight       : 4,62
  Average B2B Weight   : 8,61

Postal Code: 31275
  Total Deliveries     : 4.814
  B2B Deliveries       : 832
  Total Parcels        : 7.279
  B2B Parcels          : 1.373
  B2B Delivery Ratio   : 17,28%
  B2B Parcel Ratio     : 18,86%
  Average Weight       : 4,78
  Average B2B Weight   : 8,41

Postal Code: 31319
  Total Deliveries     : 2.851
  B2B Deliveries       : 335
  Total Parcels        : 4.147
  B2B Parcels          : 524
  B2B Delivery Ratio   : 11,75%
  B2B Parcel Ratio     : 12,64%
  Average Weight       : 4,60
  Average B2B Weight   : 8,41

Postal Code: 30989
  Total Deliveries     : 1.677
  B2B Deliveries       : 327
  Total Parcels        : 2.565
  B2B Parcels          : 529
  B2B Delivery Ratio   : 19,50%
  B2B Parcel Ratio     : 20,62%
  Average Weight       : 4,76
  Average B2B Weight   : 7,96

Postal Code: 30823
  Total Deliveries     : 2.181
  B2B Deliveries       : 349
  Total Parcels        : 3.622
  B2B Parcels          : 623
  B2B Delivery Ratio   : 16,00%
  B2B Parcel Ratio     : 17,20%
  Average Weight       : 4,65
  Average B2B Weight   : 8,76

Postal Code: 30625
  Total Deliveries     : 1.448
  B2B Deliveries       : 289
  Total Parcels        : 2.762
  B2B Parcels          : 590
  B2B Delivery Ratio   : 19,96%
  B2B Parcel Ratio     : 21,36%
  Average Weight       : 5,06
  Average B2B Weight   : 8,44

Postal Code: 30900
  Total Deliveries     : 3.814
  B2B Deliveries       : 687
  Total Parcels        : 5.464
  B2B Parcels          : 1.018
  B2B Delivery Ratio   : 18,01%
  B2B Parcel Ratio     : 18,63%
  Average Weight       : 4,84
  Average B2B Weight   : 8,67

Postal Code: 30826
  Total Deliveries     : 2.027
  B2B Deliveries       : 259
  Total Parcels        : 3.177
  B2B Parcels          : 537
  B2B Delivery Ratio   : 12,78%
  B2B Parcel Ratio     : 16,90%
  Average Weight       : 4,76
  Average B2B Weight   : 8,43

Postal Code: 30627
  Total Deliveries     : 840
  B2B Deliveries       : 140
  Total Parcels        : 1.803
  B2B Parcels          : 482
  B2B Delivery Ratio   : 16,67%
  B2B Parcel Ratio     : 26,73%
  Average Weight       : 5,16
  Average B2B Weight   : 8,23

Postal Code: 31832
  Total Deliveries     : 3.226
  B2B Deliveries       : 536
  Total Parcels        : 4.778
  B2B Parcels          : 848
  B2B Delivery Ratio   : 16,62%
  B2B Parcel Ratio     : 17,75%
  Average Weight       : 4,70
  Average B2B Weight   : 8,21

Postal Code: 31515
  Total Deliveries     : 4.426
  B2B Deliveries       : 818
  Total Parcels        : 7.089
  B2B Parcels          : 1.483
  B2B Delivery Ratio   : 18,48%
  B2B Parcel Ratio     : 20,92%
  Average Weight       : 5,08
  Average B2B Weight   : 8,76

Postal Code: 30926
  Total Deliveries     : 3.177
  B2B Deliveries       : 357
  Total Parcels        : 5.361
  B2B Parcels          : 758
  B2B Delivery Ratio   : 11,24%
  B2B Parcel Ratio     : 14,14%
  Average Weight       : 4,58
  Average B2B Weight   : 8,29

Postal Code: 30171
  Total Deliveries     : 999
  B2B Deliveries       : 162
  Total Parcels        : 3.004
  B2B Parcels          : 516
  B2B Delivery Ratio   : 16,22%
  B2B Parcel Ratio     : 17,18%
  Average Weight       : 4,78
  Average B2B Weight   : 8,61

Postal Code: 30453
  Total Deliveries     : 1.674
  B2B Deliveries       : 398
  Total Parcels        : 3.242
  B2B Parcels          : 856
  B2B Delivery Ratio   : 23,78%
  B2B Parcel Ratio     : 26,40%
  Average Weight       : 5,25
  Average B2B Weight   : 8,86

Postal Code: 30177
  Total Deliveries     : 1.127
  B2B Deliveries       : 186
  Total Parcels        : 2.539
  B2B Parcels          : 387
  B2B Delivery Ratio   : 16,50%
  B2B Parcel Ratio     : 15,24%
  Average Weight       : 4,65
  Average B2B Weight   : 7,80

Postal Code: 30851
  Total Deliveries     : 1.245
  B2B Deliveries       : 198
  Total Parcels        : 2.318
  B2B Parcels          : 460
  B2B Delivery Ratio   : 15,90%
  B2B Parcel Ratio     : 19,84%
  Average Weight       : 4,92
  Average B2B Weight   : 8,85

Postal Code: 30455
  Total Deliveries     : 1.489
  B2B Deliveries       : 200
  Total Parcels        : 2.657
  B2B Parcels          : 397
  B2B Delivery Ratio   : 13,43%
  B2B Parcel Ratio     : 14,94%
  Average Weight       : 4,72
  Average B2B Weight   : 8,70

Postal Code: 30179
  Total Deliveries     : 1.206
  B2B Deliveries       : 259
  Total Parcels        : 2.656
  B2B Parcels          : 680
  B2B Delivery Ratio   : 21,48%
  B2B Parcel Ratio     : 25,60%
  Average Weight       : 4,88
  Average B2B Weight   : 8,37

Postal Code: 30173
  Total Deliveries     : 1.402
  B2B Deliveries       : 305
  Total Parcels        : 3.340
  B2B Parcels          : 836
  B2B Delivery Ratio   : 21,75%
  B2B Parcel Ratio     : 25,03%
  Average Weight       : 4,98
  Average B2B Weight   : 8,58

Postal Code: 30451
  Total Deliveries     : 878
  B2B Deliveries       : 163
  Total Parcels        : 2.055
  B2B Parcels          : 528
  B2B Delivery Ratio   : 18,56%
  B2B Parcel Ratio     : 25,69%
  Average Weight       : 5,04
  Average B2B Weight   : 8,55

Postal Code: 30175
  Total Deliveries     : 744
  B2B Deliveries       : 252
  Total Parcels        : 1.616
  B2B Parcels          : 601
  B2B Delivery Ratio   : 33,87%
  B2B Parcel Ratio     : 37,19%
  Average Weight       : 5,64
  Average B2B Weight   : 8,42

Postal Code: 30890
  Total Deliveries     : 3.525
  B2B Deliveries       : 560
  Total Parcels        : 5.353
  B2B Parcels          : 899
  B2B Delivery Ratio   : 15,89%
  B2B Parcel Ratio     : 16,79%
  Average Weight       : 4,65
  Average B2B Weight   : 8,07

Postal Code: 30659
  Total Deliveries     : 1.258
  B2B Deliveries       : 297
  Total Parcels        : 2.545
  B2B Parcels          : 700
  B2B Delivery Ratio   : 23,61%
  B2B Parcel Ratio     : 27,50%
  Average Weight       : 5,22
  Average B2B Weight   : 8,66

Postal Code: 30419
  Total Deliveries     : 3.065
  B2B Deliveries       : 435
  Total Parcels        : 5.727
  B2B Parcels          : 929
  B2B Delivery Ratio   : 14,19%
  B2B Parcel Ratio     : 16,22%
  Average Weight       : 4,78
  Average B2B Weight   : 8,45

Postal Code: 30539
  Total Deliveries     : 1.682
  B2B Deliveries       : 326
  Total Parcels        : 3.929
  B2B Parcels          : 1.414
  B2B Delivery Ratio   : 19,38%
  B2B Parcel Ratio     : 35,99%
  Average Weight       : 5,69
  Average B2B Weight   : 8,64

Postal Code: 30853
  Total Deliveries     : 1.382
  B2B Deliveries       : 365
  Total Parcels        : 2.749
  B2B Parcels          : 955
  B2B Delivery Ratio   : 26,41%
  B2B Parcel Ratio     : 34,74%
  Average Weight       : 5,23
  Average B2B Weight   : 8,13

Postal Code: 30974
  Total Deliveries     : 1.606
  B2B Deliveries       : 265
  Total Parcels        : 2.459
  B2B Parcels          : 503
  B2B Delivery Ratio   : 16,50%
  B2B Parcel Ratio     : 20,46%
  Average Weight       : 4,84
  Average B2B Weight   : 8,37

Postal Code: 30457
  Total Deliveries     : 1.236
  B2B Deliveries       : 146
  Total Parcels        : 2.384
  B2B Parcels          : 370
  B2B Delivery Ratio   : 11,81%
  B2B Parcel Ratio     : 15,52%
  Average Weight       : 4,54
  Average B2B Weight   : 8,10

Postal Code: 30655
  Total Deliveries     : 1.505
  B2B Deliveries       : 209
  Total Parcels        : 3.208
  B2B Parcels          : 559
  B2B Delivery Ratio   : 13,89%
  B2B Parcel Ratio     : 17,43%
  Average Weight       : 4,66
  Average B2B Weight   : 8,64

Postal Code: 31303
  Total Deliveries     : 3.311
  B2B Deliveries       : 579
  Total Parcels        : 4.846
  B2B Parcels          : 839
  B2B Delivery Ratio   : 17,49%
  B2B Parcel Ratio     : 17,31%
  Average Weight       : 4,71
  Average B2B Weight   : 8,44

Postal Code: 30855
  Total Deliveries     : 4.283
  B2B Deliveries       : 925
  Total Parcels        : 11.778
  B2B Parcels          : 4.174
  B2B Delivery Ratio   : 21,60%
  B2B Parcel Ratio     : 35,44%
  Average Weight       : 5,59
  Average B2B Weight   : 8,59

Postal Code: 30459
  Total Deliveries     : 1.556
  B2B Deliveries       : 218
  Total Parcels        : 2.847
  B2B Parcels          : 458
  B2B Delivery Ratio   : 14,01%
  B2B Parcel Ratio     : 16,09%
  Average Weight       : 4,73
  Average B2B Weight   : 8,13

Postal Code: 30657
  Total Deliveries     : 1.237
  B2B Deliveries       : 226
  Total Parcels        : 3.294
  B2B Parcels          : 1.345
  B2B Delivery Ratio   : 18,27%
  B2B Parcel Ratio     : 40,83%
  Average Weight       : 6,11
  Average B2B Weight   : 8,88

Postal Code: 30916
  Total Deliveries     : 3.097
  B2B Deliveries       : 791
  Total Parcels        : 5.372
  B2B Parcels          : 1.654
  B2B Delivery Ratio   : 25,54%
  B2B Parcel Ratio     : 30,79%
  Average Weight       : 5,35
  Average B2B Weight   : 8,33

Postal Code: 30519
  Total Deliveries     : 2.403
  B2B Deliveries       : 513
  Total Parcels        : 4.839
  B2B Parcels          : 1.249
  B2B Delivery Ratio   : 21,35%
  B2B Parcel Ratio     : 25,81%
  Average Weight       : 4,98
  Average B2B Weight   : 8,80

Postal Code: 30161
  Total Deliveries     : 1.600
  B2B Deliveries       : 399
  Total Parcels        : 4.397
  B2B Parcels          : 1.552
  B2B Delivery Ratio   : 24,94%
  B2B Parcel Ratio     : 35,30%
  Average Weight       : 5,51
  Average B2B Weight   : 8,66

Postal Code: 30167
  Total Deliveries     : 1.082
  B2B Deliveries       : 289
  Total Parcels        : 2.702
  B2B Parcels          : 898
  B2B Delivery Ratio   : 26,71%
  B2B Parcel Ratio     : 33,23%
  Average Weight       : 5,49
  Average B2B Weight   : 8,26

Postal Code: 30169
  Total Deliveries     : 875
  B2B Deliveries       : 240
  Total Parcels        : 1.996
  B2B Parcels          : 647
  B2B Delivery Ratio   : 27,43%
  B2B Parcel Ratio     : 32,41%
  Average Weight       : 5,42
  Average B2B Weight   : 8,62

Postal Code: 30163
  Total Deliveries     : 1.468
  B2B Deliveries       : 291
  Total Parcels        : 3.699
  B2B Parcels          : 975
  B2B Delivery Ratio   : 19,82%
  B2B Parcel Ratio     : 26,36%
  Average Weight       : 5,05
  Average B2B Weight   : 8,41

Postal Code: 30165
  Total Deliveries     : 1.441
  B2B Deliveries       : 288
  Total Parcels        : 3.225
  B2B Parcels          : 919
  B2B Delivery Ratio   : 19,99%
  B2B Parcel Ratio     : 28,50%
  Average Weight       : 5,43
  Average B2B Weight   : 8,76

Postal Code: 30880
  Total Deliveries     : 3.466
  B2B Deliveries       : 756
  Total Parcels        : 6.471
  B2B Parcels          : 1.753
  B2B Delivery Ratio   : 21,81%
  B2B Parcel Ratio     : 27,09%
  Average Weight       : 5,24
  Average B2B Weight   : 8,57

Postal Code: 30966
  Total Deliveries     : 2.064
  B2B Deliveries       : 282
  Total Parcels        : 3.502
  B2B Parcels          : 619
  B2B Delivery Ratio   : 13,66%
  B2B Parcel Ratio     : 17,68%
  Average Weight       : 4,72
  Average B2B Weight   : 8,44

Postal Code: 30449
  Total Deliveries     : 1.158
  B2B Deliveries       : 210
  Total Parcels        : 2.763
  B2B Parcels          : 781
  B2B Delivery Ratio   : 18,13%
  B2B Parcel Ratio     : 28,27%
  Average Weight       : 5,33
  Average B2B Weight   : 8,53

Postal Code: 31535
  Total Deliveries     : 4.998
  B2B Deliveries       : 725
  Total Parcels        : 7.201
  B2B Parcels          : 1.176
  B2B Delivery Ratio   : 14,51%
  B2B Parcel Ratio     : 16,33%
  Average Weight       : 4,74
  Average B2B Weight   : 8,44

Postal Code: 30827
  Total Deliveries     : 1.610
  B2B Deliveries       : 316
  Total Parcels        : 3.050
  B2B Parcels          : 838
  B2B Delivery Ratio   : 19,63%
  B2B Parcel Ratio     : 27,48%
  Average Weight       : 5,27
  Average B2B Weight   : 8,68

Postal Code: 30629
  Total Deliveries     : 1.331
  B2B Deliveries       : 158
  Total Parcels        : 2.352
  B2B Parcels          : 335
  B2B Delivery Ratio   : 11,87%
  B2B Parcel Ratio     : 14,24%
  Average Weight       : 4,67
  Average B2B Weight   : 8,78

Postal Code: 30559
  Total Deliveries     : 2.283
  B2B Deliveries       : 404
  Total Parcels        : 4.556
  B2B Parcels          : 1.330
  B2B Delivery Ratio   : 17,70%
  B2B Parcel Ratio     : 29,19%
  Average Weight       : 5,38
  Average B2B Weight   : 8,53

Postal Code: 30952
  Total Deliveries     : 2.301
  B2B Deliveries       : 389
  Total Parcels        : 3.707
  B2B Parcels          : 646
  B2B Delivery Ratio   : 16,91%
  B2B Parcel Ratio     : 17,43%
  Average Weight       : 4,67
  Average B2B Weight   : 8,22

Postal Code: 30159
  Total Deliveries     : 1.161
  B2B Deliveries       : 386
  Total Parcels        : 4.110
  B2B Parcels          : 2.300
  B2B Delivery Ratio   : 33,25%
  B2B Parcel Ratio     : 55,96%
  Average Weight       : 6,52
  Average B2B Weight   : 8,58

=== Overall Summary ===
  Total Deliveries      : 105.984
  Total B2B Deliveries  : 19.188
  Total Parcels         : 196.885
  Total B2B Parcels     : 47.252
  B2B Delivery Ratio    : 18,10%
  B2B Parcel Ratio      : 24,00%
  Average Weight        : 5,05
  Average B2B Weight    : 8,53

2024-05-28 18:49:03.768 [main] INFO  hagrid.demand.DeliveryGenerator - Parcel generation completed.
2024-05-28 18:49:03.768 [main] INFO  hagrid.App - Parcel generation completed.
2024-05-28 18:49:03.768 [main] INFO  hagrid.App - Application finished.
