2024-06-25 09:18:51.392 [main] INFO  hagrid.App - Starting application...
2024-06-25 09:18:51.601 [main] INFO  org.matsim.core.utils.io.IOUtils - Resolved phd/input/config.xml to phd\input\config.xml
2024-06-25 09:18:51.613 [main] INFO  org.matsim.core.config.Config - setting context to [file:/C:/Users/bienzeisler/Documents/GitHub/HAGRID/]
2024-06-25 09:18:51.741 [main] INFO  org.hibernate.validator.internal.util.Version - HV000001: Hibernate Validator 7.0.1.Final
2024-06-25 09:18:52.128 [main] INFO  org.matsim.core.utils.io.MatsimXmlParser - starting to parse xml from url file:/C:/Users/bienzeisler/Documents/GitHub/HAGRID/phd/input/config.xml ...
2024-06-25 09:18:52.219 [main] INFO  org.matsim.core.config.ConfigReader - using config_v2-reader
2024-06-25 09:18:52.221 [main] INFO  org.matsim.core.utils.io.MatsimXmlParser - Trying to load http://www.matsim.org/files/dtd/config_v2.dtd. In some cases (e.g. network interface up but no connection), this may take a bit.
2024-06-25 09:18:52.347 [main] INFO  org.matsim.core.config.groups.GlobalConfigGroup - setting number of threads to: 2
2024-06-25 09:18:52.448 [main] WARN  org.matsim.core.config.groups.ScoringConfigGroup - Setting pathSizeLogitBeta different from zero is experimental.  KN, Sep'08
2024-06-25 09:18:52.510 [main] INFO  org.matsim.core.config.groups.ScoringConfigGroup - scoring parameters for subpopulation null were just replaced.
2024-06-25 09:18:52.551 [main] WARN  org.matsim.core.config.groups.RoutingConfigGroup - The first mode routing (= teleported mode) params that are explicitly defined clear the default mode routing (= teleported mode) params.  If you want to avoid this 
2024-06-25 09:18:52.552 [main] WARN  org.matsim.core.config.groups.RoutingConfigGroup -     warning, use clearTeleportedModeParams(true) in code, and "clearDefaultTeleportedModeParams"=true in xml config.
2024-06-25 09:18:52.585 [main] INFO  org.matsim.core.config.Config - setting context to [file:/C:/Users/bienzeisler/Documents/GitHub/HAGRID/phd/input/config.xml]
2024-06-25 09:18:52.648 [main] INFO  org.matsim.core.scenario.ScenarioLoaderImpl - no facilities file set in config, therefore not loading any facilities.  This is not a problem except if you are using facilities
2024-06-25 09:18:52.649 [main] INFO  org.matsim.core.scenario.ScenarioLoaderImpl - no facility-attributes file set in config, not loading any facility attributes
2024-06-25 09:18:52.650 [main] INFO  org.matsim.core.scenario.ScenarioLoaderImpl - no population file set in config, not able to load population
2024-06-25 09:18:52.651 [main] INFO  org.matsim.core.scenario.ScenarioLoaderImpl - no person-attributes file set in config, not loading any person attributes
2024-06-25 09:18:52.652 [main] INFO  org.matsim.core.scenario.ScenarioLoaderImpl - no households file set in config, not loading households
2024-06-25 09:18:52.653 [main] INFO  org.matsim.core.scenario.ScenarioLoaderImpl - no transit schedule file set in config, not loading any transit schedule
2024-06-25 09:18:52.654 [main] INFO  org.matsim.core.scenario.ScenarioLoaderImpl - no transit vehicles file set in config, not loading any transit vehicles
2024-06-25 09:18:52.832 [main] INFO  hagrid.App - Initializing NetworkProcessor...
2024-06-25 09:18:52.838 [main] INFO  hagrid.App - Starting network processing...
2024-06-25 09:18:52.840 [main] INFO  hagrid.demand.NetworkProcessor - Starting network processing...
2024-06-25 09:18:52.864 [main] INFO  hagrid.demand.NetworkProcessor - Reading the network file from path: phd/input/reduced_network.xml.gz
2024-06-25 09:18:52.868 [main] INFO  org.matsim.core.utils.io.MatsimXmlParser - starting to parse xml from file phd/input/reduced_network.xml.gz ...
2024-06-25 09:18:52.869 [main] INFO  org.matsim.core.utils.io.IOUtils - Resolved phd/input/reduced_network.xml.gz to phd\input\reduced_network.xml.gz
2024-06-25 09:18:53.003 [main] INFO  org.matsim.core.network.io.MatsimNetworkReader - using network_v2-reader.
2024-06-25 09:18:53.003 [main] INFO  org.matsim.core.utils.io.MatsimXmlParser - Trying to load http://www.matsim.org/files/dtd/network_v2.dtd. In some cases (e.g. network interface up but no connection), this may take a bit.
2024-06-25 09:18:53.052 [main] INFO  org.matsim.core.network.NetworkImpl -  node # 1
2024-06-25 09:18:53.053 [main] INFO  org.matsim.core.network.NetworkImpl -  node # 4
2024-06-25 09:18:53.056 [main] INFO  org.matsim.core.network.NetworkImpl -  node # 16
2024-06-25 09:18:53.060 [main] INFO  org.matsim.core.network.NetworkImpl -  node # 64
2024-06-25 09:18:53.073 [main] INFO  org.matsim.core.network.NetworkImpl -  node # 256
2024-06-25 09:18:53.088 [main] INFO  org.matsim.core.network.NetworkImpl -  node # 1024
2024-06-25 09:18:53.143 [main] INFO  org.matsim.core.network.NetworkImpl -  node # 4096
2024-06-25 09:18:53.311 [main] INFO  org.matsim.core.network.NetworkImpl -  node # 16384
2024-06-25 09:18:53.334 [main] INFO  org.matsim.core.network.NetworkImpl -  link # 1
2024-06-25 09:18:53.340 [main] INFO  org.matsim.core.network.NetworkImpl -  link # 4
2024-06-25 09:18:53.347 [main] INFO  org.matsim.core.network.NetworkImpl -  link # 16
2024-06-25 09:18:53.369 [main] INFO  org.matsim.core.network.NetworkImpl -  link # 64
2024-06-25 09:18:53.419 [main] INFO  org.matsim.core.network.NetworkImpl -  link # 256
2024-06-25 09:18:53.503 [main] INFO  org.matsim.core.network.NetworkImpl -  link # 1024
2024-06-25 09:18:53.510 [main] WARN  org.matsim.api.core.v01.network.Link - length=0.0 of link id 1185132 may cause problems
2024-06-25 09:18:53.510 [main] WARN  org.matsim.api.core.v01.network.Link -  Future occurences of this logging statement are suppressed.
2024-06-25 09:18:53.777 [main] INFO  org.matsim.core.network.NetworkImpl -  link # 4096
2024-06-25 09:18:54.257 [main] INFO  org.matsim.core.network.NetworkImpl -  link # 16384
2024-06-25 09:18:54.334 [main] INFO  hagrid.demand.NetworkProcessor - Adjusting link lengths and free speeds...
2024-06-25 09:18:54.348 [main] INFO  hagrid.demand.NetworkProcessor - Link adjustments completed.
2024-06-25 09:18:54.349 [main] INFO  hagrid.demand.NetworkProcessor - Filtering network to include only car mode links...
2024-06-25 09:18:54.351 [main] INFO  org.matsim.core.config.Config - setting context to [file:/C:/Users/bienzeisler/Documents/GitHub/HAGRID/]
2024-06-25 09:18:54.362 [main] INFO  org.matsim.core.network.NetworkImpl -  node # 1
2024-06-25 09:18:54.363 [main] INFO  org.matsim.core.network.NetworkImpl -  node # 4
2024-06-25 09:18:54.363 [main] INFO  org.matsim.core.network.NetworkImpl -  node # 16
2024-06-25 09:18:54.363 [main] INFO  org.matsim.core.network.NetworkImpl -  node # 64
2024-06-25 09:18:54.364 [main] INFO  org.matsim.core.network.NetworkImpl -  node # 256
2024-06-25 09:18:54.365 [main] INFO  org.matsim.core.network.NetworkImpl -  node # 1024
2024-06-25 09:18:54.367 [main] INFO  org.matsim.core.network.NetworkImpl -  node # 4096
2024-06-25 09:18:54.374 [main] INFO  org.matsim.core.network.NetworkImpl -  node # 16384
2024-06-25 09:18:54.376 [main] INFO  org.matsim.core.network.NetworkImpl -  link # 1
2024-06-25 09:18:54.377 [main] INFO  org.matsim.core.network.NetworkImpl -  link # 4
2024-06-25 09:18:54.380 [main] INFO  org.matsim.core.network.NetworkImpl -  link # 16
2024-06-25 09:18:54.388 [main] INFO  org.matsim.core.network.NetworkImpl -  link # 64
2024-06-25 09:18:54.394 [main] INFO  org.matsim.core.network.NetworkImpl -  link # 256
2024-06-25 09:18:54.404 [main] INFO  org.matsim.core.network.NetworkImpl -  link # 1024
2024-06-25 09:18:54.421 [main] INFO  org.matsim.core.network.NetworkImpl -  link # 4096
2024-06-25 09:18:54.479 [main] INFO  org.matsim.core.network.NetworkImpl -  link # 16384
2024-06-25 09:18:54.527 [main] INFO  hagrid.demand.NetworkProcessor - Car mode network filtering completed.
2024-06-25 09:18:54.528 [main] INFO  hagrid.demand.NetworkProcessor - Creating parcel service network based on custom criteria...
2024-06-25 09:18:54.528 [main] INFO  org.matsim.core.config.Config - setting context to [file:/C:/Users/bienzeisler/Documents/GitHub/HAGRID/]
2024-06-25 09:18:54.546 [main] INFO  org.matsim.core.network.NetworkImpl -  node # 1
2024-06-25 09:18:54.548 [main] INFO  org.matsim.core.network.NetworkImpl -  node # 4
2024-06-25 09:18:54.549 [main] INFO  org.matsim.core.network.NetworkImpl -  node # 16
2024-06-25 09:18:54.550 [main] INFO  org.matsim.core.network.NetworkImpl -  node # 64
2024-06-25 09:18:54.552 [main] INFO  org.matsim.core.network.NetworkImpl -  node # 256
2024-06-25 09:18:54.554 [main] INFO  org.matsim.core.network.NetworkImpl -  node # 1024
2024-06-25 09:18:54.556 [main] INFO  org.matsim.core.network.NetworkImpl -  node # 4096
2024-06-25 09:18:54.561 [main] INFO  hagrid.demand.NetworkProcessor - Total number of links in the carFilteredNetwork: 19063
2024-06-25 09:18:54.562 [main] INFO  org.matsim.core.network.NetworkImpl -  link # 1
2024-06-25 09:18:54.563 [main] INFO  org.matsim.core.network.NetworkImpl -  link # 4
2024-06-25 09:18:54.563 [main] INFO  org.matsim.core.network.NetworkImpl -  link # 16
2024-06-25 09:18:54.564 [main] INFO  org.matsim.core.network.NetworkImpl -  link # 64
2024-06-25 09:18:54.566 [main] INFO  org.matsim.core.network.NetworkImpl -  link # 256
2024-06-25 09:18:54.571 [main] INFO  org.matsim.core.network.NetworkImpl -  link # 1024
2024-06-25 09:18:54.576 [main] INFO  org.matsim.core.network.NetworkImpl -  link # 4096
2024-06-25 09:18:54.608 [main] INFO  org.matsim.core.network.NetworkImpl -  link # 16384
2024-06-25 09:18:54.613 [main] INFO  hagrid.demand.NetworkProcessor - Parcel service network created successfully with 18730 links added.
2024-06-25 09:18:54.613 [main] INFO  hagrid.demand.NetworkProcessor - Difference in number of links between carFilteredNetwork and parcel service network: 333
2024-06-25 09:18:54.614 [main] INFO  hagrid.App - Network processing completed. Subnetworks created.
2024-06-25 09:18:54.615 [main] INFO  hagrid.App - Initializing LogisticsDataProcessor...
2024-06-25 09:18:54.616 [main] INFO  hagrid.App - Starting logistics data processing...
2024-06-25 09:18:54.616 [main] INFO  hagrid.demand.LogisticsDataProcessor - Reading logistics data...
2024-06-25 09:18:54.618 [main] INFO  hagrid.demand.LogisticsDataProcessor - Reading geodata of Hanover Region from folder: phd/input/geodata/Region Hannover.shp
2024-06-25 09:18:54.620 [main] INFO  org.matsim.core.utils.gis.GeoFileReader - will try to read from C:\Users\bienzeisler\Documents\GitHub\HAGRID\phd\input\geodata\Region Hannover.shp
2024-06-25 09:18:56.095 [main] INFO  hagrid.demand.LogisticsDataProcessor - Reading hub data from file: phd/input/hubs/KEP-hubs_v3.csv
2024-06-25 09:18:56.095 [main] INFO  hagrid.demand.LogisticsDataProcessor - Reading data from file: phd/input/hubs/KEP-hubs_v3.csv
2024-06-25 09:18:56.112 [main] INFO  org.matsim.core.network.NetworkImpl - building LinkQuadTree for nodes: xrange(286579.5670514173,953227.577157235); yrange(5242845.444958333,6018233.358636351)
2024-06-25 09:18:56.152 [main] INFO  org.matsim.core.network.NetworkImpl - Building LinkQuadTree took 0.049 seconds.
2024-06-25 09:18:56.160 [main] INFO  hagrid.demand.LogisticsDataProcessor - Read 25 entries from file: phd/input/hubs/KEP-hubs_v3.csv
2024-06-25 09:18:56.161 [main] INFO  hagrid.utils.GeoUtils - Original number of hubs: 25
2024-06-25 09:18:56.162 [main] INFO  hagrid.utils.GeoUtils - Filtering hubs by regions: BARSINGHAUSEN, BURGDORF, BURGWEDEL, GARBSEN, GEHRDEN, HANNOVER, HEMMINGEN, ISERNHAGEN, LAATZEN, LANGENHAGEN, LEHRTE, NEUSTADT, PATTENSEN, RONNENBERG, SEELZE, SEHNDE, SPRINGE, UETZE, WEDEMARK, WENNIGSEN, WUNSTORF
2024-06-25 09:18:56.258 [main] INFO  hagrid.utils.GeoUtils - Filtered number of hubs: 21
2024-06-25 09:18:56.258 [main] INFO  hagrid.utils.GeoUtils - Number of hubs removed: 4
2024-06-25 09:18:56.258 [main] INFO  hagrid.demand.LogisticsDataProcessor - Reading parcel locker data from file: phd/input/hubs/standorte_von_dhl.de.csv
2024-06-25 09:18:56.258 [main] INFO  hagrid.demand.LogisticsDataProcessor - Reading data from file: phd/input/hubs/standorte_von_dhl.de.csv
2024-06-25 09:18:57.582 [main] INFO  hagrid.demand.LogisticsDataProcessor - Read 44 entries from file: phd/input/hubs/standorte_von_dhl.de.csv
2024-06-25 09:18:57.582 [main] INFO  hagrid.demand.LogisticsDataProcessor - Reading shipping point data from folder: phd/input/hubs/standorte_von_paket.net/
2024-06-25 09:18:57.582 [main] INFO  hagrid.demand.LogisticsDataProcessor - Reading data from file: phd/input/hubs/standorte_von_paket.net/dhl_paketnet_list.csv
2024-06-25 09:18:57.717 [main] INFO  hagrid.demand.LogisticsDataProcessor - Read 301 entries from file: phd/input/hubs/standorte_von_paket.net/dhl_paketnet_list.csv
2024-06-25 09:18:57.717 [main] INFO  hagrid.demand.LogisticsDataProcessor - Reading data from file: phd/input/hubs/standorte_von_paket.net/dpd_paketnet_list.csv
2024-06-25 09:18:57.762 [main] INFO  hagrid.demand.LogisticsDataProcessor - Read 95 entries from file: phd/input/hubs/standorte_von_paket.net/dpd_paketnet_list.csv
2024-06-25 09:18:57.763 [main] INFO  hagrid.demand.LogisticsDataProcessor - Reading data from file: phd/input/hubs/standorte_von_paket.net/gls_paketnet_list.csv
2024-06-25 09:18:57.778 [main] INFO  hagrid.demand.LogisticsDataProcessor - Read 92 entries from file: phd/input/hubs/standorte_von_paket.net/gls_paketnet_list.csv
2024-06-25 09:18:57.779 [main] INFO  hagrid.demand.LogisticsDataProcessor - Reading data from file: phd/input/hubs/standorte_von_paket.net/hermes_paketnet_list.csv
2024-06-25 09:18:57.855 [main] INFO  hagrid.demand.LogisticsDataProcessor - Read 199 entries from file: phd/input/hubs/standorte_von_paket.net/hermes_paketnet_list.csv
2024-06-25 09:18:57.856 [main] INFO  hagrid.demand.LogisticsDataProcessor - Reading data from file: phd/input/hubs/standorte_von_paket.net/ups_paketnet_list.csv
2024-06-25 09:18:57.872 [main] INFO  hagrid.demand.LogisticsDataProcessor - Read 52 entries from file: phd/input/hubs/standorte_von_paket.net/ups_paketnet_list.csv
2024-06-25 09:18:57.873 [main] INFO  hagrid.utils.GeoUtils - No filtering applied. 'ALL' region specified. Returning all hubs.
2024-06-25 09:18:57.873 [main] INFO  hagrid.utils.GeoUtils - No filtering applied. 'ALL' region specified. Returning all hubs.
2024-06-25 09:18:57.873 [main] INFO  hagrid.demand.LogisticsDataProcessor - Loading carrier vehicle types...
2024-06-25 09:18:57.876 [main] INFO  org.matsim.freight.carriers.CarrierVehicleTypeReader - With early carrier vehicle type file formats, there will be an expected exception in the following.
2024-06-25 09:18:57.877 [main] INFO  org.matsim.core.utils.io.MatsimXmlParser - starting to parse xml from file phd/input/HAGRID_vehicleTypes.xml ...
2024-06-25 09:18:57.878 [main] INFO  org.matsim.core.utils.io.IOUtils - Resolved phd/input/HAGRID_vehicleTypes.xml to phd\input\HAGRID_vehicleTypes.xml
2024-06-25 09:18:57.997 [main] INFO  org.matsim.core.utils.io.MatsimXmlParser - Trying to load http://www.matsim.org/files/dtd/vehicleDefinitions_v2.0.xsd. In some cases (e.g. network interface up but no connection), this may take a bit.
2024-06-25 09:18:58.058 [main] INFO  org.matsim.core.utils.io.MatsimXmlParser - Trying to load http://www.matsim.org/files/dtd/matsimCommon.xsd. In some cases (e.g. network interface up but no connection), this may take a bit.
2024-06-25 09:18:58.091 [main] INFO  org.matsim.core.utils.io.MatsimXmlParser - Trying to load http://www.matsim.org/files/dtd/vehicleDefinitionsEnumTypes.xsd. In some cases (e.g. network interface up but no connection), this may take a bit.
2024-06-25 09:18:58.132 [main] INFO  org.matsim.freight.carriers.CarrierVehicleTypeReader - Using central vehicle parser
2024-06-25 09:18:58.133 [main] INFO  org.matsim.vehicles.MatsimVehicleReader - Found following schemaLocation in vehicle definition file: http://www.matsim.org/files/dtd http://www.matsim.org/files/dtd/vehicleDefinitions_v2.0.xsd
2024-06-25 09:18:58.135 [main] INFO  org.matsim.vehicles.VehicleReaderV2 - Using org.matsim.vehicles.VehicleReaderV2
2024-06-25 09:18:58.146 [main] INFO  hagrid.demand.LogisticsDataProcessor - Logistics data processing completed.
2024-06-25 09:18:58.146 [main] INFO  hagrid.App - Logistics data processing completed.
2024-06-25 09:18:58.147 [main] INFO  hagrid.App - Initializing DemandProcessor...
2024-06-25 09:18:58.147 [main] INFO  hagrid.App - Starting demand data processing...
2024-06-25 09:18:58.148 [main] INFO  hagrid.demand.DemandProcessor - Reading freight demand data from file: T:/bienzeisler/USEfUL-XT/matsim-hanover/01_MATSimModelCreator/vm-hochrechnung_matsim-punkte_epsg25832_mit_plz_v4_b2b.shp
2024-06-25 09:18:58.148 [main] WARN  org.matsim.core.utils.gis.GeoFileReader - Unsafe method! store.dispose() is not called from within this method
2024-06-25 09:18:58.715 [main] INFO  org.matsim.core.utils.gis.GeoFileReader - features to read #46565
2024-06-25 09:18:58.729 [main] INFO  org.matsim.core.utils.misc.Counter - features read #1
2024-06-25 09:18:58.730 [main] INFO  org.matsim.core.utils.misc.Counter - features read #2
2024-06-25 09:18:58.734 [main] INFO  org.matsim.core.utils.misc.Counter - features read #4
2024-06-25 09:18:58.741 [main] INFO  org.matsim.core.utils.misc.Counter - features read #8
2024-06-25 09:18:58.745 [main] INFO  org.matsim.core.utils.misc.Counter - features read #16
2024-06-25 09:18:58.754 [main] INFO  org.matsim.core.utils.misc.Counter - features read #32
2024-06-25 09:18:58.799 [main] INFO  org.matsim.core.utils.misc.Counter - features read #64
2024-06-25 09:18:58.808 [main] INFO  org.matsim.core.utils.misc.Counter - features read #128
2024-06-25 09:18:58.821 [main] INFO  org.matsim.core.utils.misc.Counter - features read #256
2024-06-25 09:18:58.858 [main] INFO  org.matsim.core.utils.misc.Counter - features read #512
2024-06-25 09:18:58.910 [main] INFO  org.matsim.core.utils.misc.Counter - features read #1024
2024-06-25 09:18:59.051 [main] INFO  org.matsim.core.utils.misc.Counter - features read #2048
2024-06-25 09:18:59.227 [main] INFO  org.matsim.core.utils.misc.Counter - features read #4096
2024-06-25 09:18:59.416 [main] INFO  org.matsim.core.utils.misc.Counter - features read #8192
2024-06-25 09:18:59.627 [main] INFO  org.matsim.core.utils.misc.Counter - features read #16384
2024-06-25 09:19:00.006 [main] INFO  org.matsim.core.utils.misc.Counter - features read #32768
2024-06-25 09:19:00.381 [main] INFO  org.matsim.core.utils.misc.Counter - features read #46565
2024-06-25 09:19:00.382 [main] INFO  hagrid.utils.GeoUtils - No filtering applied. 'ALL' region specified. Returning all features.
2024-06-25 09:19:00.822 [main] INFO  hagrid.demand.DemandProcessor - Total Number of Deliveries: 105984
2024-06-25 09:19:00.822 [main] INFO  hagrid.demand.DemandProcessor - Total Number of Parcels: 196885
2024-06-25 09:19:00.874 [main] INFO  hagrid.demand.DemandProcessor - Demand Border: 600
2024-06-25 09:19:00.875 [main] INFO  hagrid.demand.DemandProcessor - Need for Split: dhl_31275: Number of Deliveries: 1557
2024-06-25 09:19:00.880 [main] INFO  hagrid.demand.DemandProcessor - Initializing KMeans clustering with 3 clusters...
2024-06-25 09:19:01.056 [main] INFO  hagrid.demand.DemandProcessor - Cluster 1: 519 features
2024-06-25 09:19:01.056 [main] INFO  hagrid.demand.DemandProcessor - Cluster 2: 519 features
2024-06-25 09:19:01.056 [main] INFO  hagrid.demand.DemandProcessor - Cluster 3: 519 features
2024-06-25 09:19:01.056 [main] INFO  hagrid.demand.DemandProcessor - Total number of clusters created: 3
2024-06-25 09:19:01.839 [main] INFO  hagrid.demand.DemandProcessor - Chart saved successfully at: phd/output/demand_clustering/ClusterResults_dhl_31275.png
2024-06-25 09:19:01.844 [main] INFO  hagrid.demand.DemandProcessor - Assigned Demand for new Carrier dhl_31275_0: 519
2024-06-25 09:19:01.845 [main] INFO  hagrid.demand.DemandProcessor - Assigned Demand for new Carrier dhl_31275_1: 519
2024-06-25 09:19:01.847 [main] INFO  hagrid.demand.DemandProcessor - Assigned Demand for new Carrier dhl_31275_2: 519
2024-06-25 09:19:01.848 [main] INFO  hagrid.demand.DemandProcessor - Need for Split: dhl_30880: Number of Deliveries: 950
2024-06-25 09:19:01.849 [main] INFO  hagrid.demand.DemandProcessor - Initializing KMeans clustering with 2 clusters...
2024-06-25 09:19:01.856 [main] INFO  hagrid.demand.DemandProcessor - Cluster 1: 475 features
2024-06-25 09:19:01.857 [main] INFO  hagrid.demand.DemandProcessor - Cluster 2: 475 features
2024-06-25 09:19:01.857 [main] INFO  hagrid.demand.DemandProcessor - Total number of clusters created: 2
2024-06-25 09:19:02.089 [main] INFO  hagrid.demand.DemandProcessor - Chart saved successfully at: phd/output/demand_clustering/ClusterResults_dhl_30880.png
2024-06-25 09:19:02.089 [main] INFO  hagrid.demand.DemandProcessor - Assigned Demand for new Carrier dhl_30880_0: 475
2024-06-25 09:19:02.093 [main] INFO  hagrid.demand.DemandProcessor - Assigned Demand for new Carrier dhl_30880_1: 475
2024-06-25 09:19:02.093 [main] INFO  hagrid.demand.DemandProcessor - Need for Split: dhl_31311: Number of Deliveries: 839
2024-06-25 09:19:02.094 [main] INFO  hagrid.demand.DemandProcessor - Initializing KMeans clustering with 2 clusters...
2024-06-25 09:19:02.101 [main] INFO  hagrid.demand.DemandProcessor - Cluster 1: 419 features
2024-06-25 09:19:02.105 [main] INFO  hagrid.demand.DemandProcessor - Cluster 2: 420 features
2024-06-25 09:19:02.109 [main] INFO  hagrid.demand.DemandProcessor - Total number of clusters created: 2
2024-06-25 09:19:02.410 [main] INFO  hagrid.demand.DemandProcessor - Chart saved successfully at: phd/output/demand_clustering/ClusterResults_dhl_31311.png
2024-06-25 09:19:02.410 [main] INFO  hagrid.demand.DemandProcessor - Assigned Demand for new Carrier dhl_31311_0: 419
2024-06-25 09:19:02.410 [main] INFO  hagrid.demand.DemandProcessor - Assigned Demand for new Carrier dhl_31311_1: 420
2024-06-25 09:19:02.410 [main] INFO  hagrid.demand.DemandProcessor - Need for Split: ups_31535: Number of Deliveries: 719
2024-06-25 09:19:02.417 [main] INFO  hagrid.demand.DemandProcessor - Initializing KMeans clustering with 2 clusters...
2024-06-25 09:19:02.454 [main] INFO  hagrid.demand.DemandProcessor - Cluster 1: 359 features
2024-06-25 09:19:02.455 [main] INFO  hagrid.demand.DemandProcessor - Cluster 2: 360 features
2024-06-25 09:19:02.455 [main] INFO  hagrid.demand.DemandProcessor - Total number of clusters created: 2
2024-06-25 09:19:02.685 [main] INFO  hagrid.demand.DemandProcessor - Chart saved successfully at: phd/output/demand_clustering/ClusterResults_ups_31535.png
2024-06-25 09:19:02.695 [main] INFO  hagrid.demand.DemandProcessor - Assigned Demand for new Carrier ups_31535_0: 359
2024-06-25 09:19:02.696 [main] INFO  hagrid.demand.DemandProcessor - Assigned Demand for new Carrier ups_31535_1: 360
2024-06-25 09:19:02.696 [main] INFO  hagrid.demand.DemandProcessor - Need for Split: ups_31515: Number of Deliveries: 668
2024-06-25 09:19:02.698 [main] INFO  hagrid.demand.DemandProcessor - Initializing KMeans clustering with 2 clusters...
2024-06-25 09:19:02.699 [main] INFO  hagrid.demand.DemandProcessor - Cluster 1: 334 features
2024-06-25 09:19:02.699 [main] INFO  hagrid.demand.DemandProcessor - Cluster 2: 334 features
2024-06-25 09:19:02.699 [main] INFO  hagrid.demand.DemandProcessor - Total number of clusters created: 2
2024-06-25 09:19:02.964 [main] INFO  hagrid.demand.DemandProcessor - Chart saved successfully at: phd/output/demand_clustering/ClusterResults_ups_31515.png
2024-06-25 09:19:02.967 [main] INFO  hagrid.demand.DemandProcessor - Assigned Demand for new Carrier ups_31515_0: 334
2024-06-25 09:19:02.968 [main] INFO  hagrid.demand.DemandProcessor - Assigned Demand for new Carrier ups_31515_1: 334
2024-06-25 09:19:02.968 [main] INFO  hagrid.demand.DemandProcessor - Need for Split: dhl_30419: Number of Deliveries: 838
2024-06-25 09:19:02.968 [main] INFO  hagrid.demand.DemandProcessor - Initializing KMeans clustering with 2 clusters...
2024-06-25 09:19:02.981 [main] INFO  hagrid.demand.DemandProcessor - Cluster 1: 419 features
2024-06-25 09:19:02.982 [main] INFO  hagrid.demand.DemandProcessor - Cluster 2: 419 features
2024-06-25 09:19:02.982 [main] INFO  hagrid.demand.DemandProcessor - Total number of clusters created: 2
2024-06-25 09:19:03.137 [main] INFO  hagrid.demand.DemandProcessor - Chart saved successfully at: phd/output/demand_clustering/ClusterResults_dhl_30419.png
2024-06-25 09:19:03.150 [main] INFO  hagrid.demand.DemandProcessor - Assigned Demand for new Carrier dhl_30419_0: 419
2024-06-25 09:19:03.151 [main] INFO  hagrid.demand.DemandProcessor - Assigned Demand for new Carrier dhl_30419_1: 419
2024-06-25 09:19:03.151 [main] INFO  hagrid.demand.DemandProcessor - Need for Split: dhl_30519: Number of Deliveries: 650
2024-06-25 09:19:03.153 [main] INFO  hagrid.demand.DemandProcessor - Initializing KMeans clustering with 2 clusters...
2024-06-25 09:19:03.168 [main] INFO  hagrid.demand.DemandProcessor - Cluster 1: 325 features
2024-06-25 09:19:03.169 [main] INFO  hagrid.demand.DemandProcessor - Cluster 2: 325 features
2024-06-25 09:19:03.170 [main] INFO  hagrid.demand.DemandProcessor - Total number of clusters created: 2
2024-06-25 09:19:03.337 [main] INFO  hagrid.demand.DemandProcessor - Chart saved successfully at: phd/output/demand_clustering/ClusterResults_dhl_30519.png
2024-06-25 09:19:03.339 [main] INFO  hagrid.demand.DemandProcessor - Assigned Demand for new Carrier dhl_30519_0: 325
2024-06-25 09:19:03.340 [main] INFO  hagrid.demand.DemandProcessor - Assigned Demand for new Carrier dhl_30519_1: 325
2024-06-25 09:19:03.341 [main] INFO  hagrid.demand.DemandProcessor - Need for Split: dhl_30938: Number of Deliveries: 861
2024-06-25 09:19:03.343 [main] INFO  hagrid.demand.DemandProcessor - Initializing KMeans clustering with 2 clusters...
2024-06-25 09:19:03.354 [main] INFO  hagrid.demand.DemandProcessor - Cluster 1: 431 features
2024-06-25 09:19:03.355 [main] INFO  hagrid.demand.DemandProcessor - Cluster 2: 430 features
2024-06-25 09:19:03.356 [main] INFO  hagrid.demand.DemandProcessor - Total number of clusters created: 2
2024-06-25 09:19:03.484 [main] INFO  hagrid.demand.DemandProcessor - Chart saved successfully at: phd/output/demand_clustering/ClusterResults_dhl_30938.png
2024-06-25 09:19:03.484 [main] INFO  hagrid.demand.DemandProcessor - Assigned Demand for new Carrier dhl_30938_0: 431
2024-06-25 09:19:03.484 [main] INFO  hagrid.demand.DemandProcessor - Assigned Demand for new Carrier dhl_30938_1: 430
2024-06-25 09:19:03.484 [main] INFO  hagrid.demand.DemandProcessor - Need for Split: dhl_30916: Number of Deliveries: 945
2024-06-25 09:19:03.492 [main] INFO  hagrid.demand.DemandProcessor - Initializing KMeans clustering with 2 clusters...
2024-06-25 09:19:03.492 [main] INFO  hagrid.demand.DemandProcessor - Cluster 1: 472 features
2024-06-25 09:19:03.492 [main] INFO  hagrid.demand.DemandProcessor - Cluster 2: 473 features
2024-06-25 09:19:03.492 [main] INFO  hagrid.demand.DemandProcessor - Total number of clusters created: 2
2024-06-25 09:19:03.684 [main] INFO  hagrid.demand.DemandProcessor - Chart saved successfully at: phd/output/demand_clustering/ClusterResults_dhl_30916.png
2024-06-25 09:19:03.692 [main] INFO  hagrid.demand.DemandProcessor - Assigned Demand for new Carrier dhl_30916_0: 472
2024-06-25 09:19:03.692 [main] INFO  hagrid.demand.DemandProcessor - Assigned Demand for new Carrier dhl_30916_1: 473
2024-06-25 09:19:03.692 [main] INFO  hagrid.demand.DemandProcessor - Need for Split: ups_31275: Number of Deliveries: 729
2024-06-25 09:19:03.700 [main] INFO  hagrid.demand.DemandProcessor - Initializing KMeans clustering with 2 clusters...
2024-06-25 09:19:03.717 [main] INFO  hagrid.demand.DemandProcessor - Cluster 1: 364 features
2024-06-25 09:19:03.717 [main] INFO  hagrid.demand.DemandProcessor - Cluster 2: 365 features
2024-06-25 09:19:03.719 [main] INFO  hagrid.demand.DemandProcessor - Total number of clusters created: 2
2024-06-25 09:19:03.851 [main] INFO  hagrid.demand.DemandProcessor - Chart saved successfully at: phd/output/demand_clustering/ClusterResults_ups_31275.png
2024-06-25 09:19:03.851 [main] INFO  hagrid.demand.DemandProcessor - Assigned Demand for new Carrier ups_31275_0: 364
2024-06-25 09:19:03.851 [main] INFO  hagrid.demand.DemandProcessor - Assigned Demand for new Carrier ups_31275_1: 365
2024-06-25 09:19:03.851 [main] INFO  hagrid.demand.DemandProcessor - Need for Split: dhl_31303: Number of Deliveries: 1073
2024-06-25 09:19:03.851 [main] INFO  hagrid.demand.DemandProcessor - Initializing KMeans clustering with 2 clusters...
2024-06-25 09:19:03.886 [main] INFO  hagrid.demand.DemandProcessor - Cluster 1: 537 features
2024-06-25 09:19:03.887 [main] INFO  hagrid.demand.DemandProcessor - Cluster 2: 536 features
2024-06-25 09:19:03.888 [main] INFO  hagrid.demand.DemandProcessor - Total number of clusters created: 2
2024-06-25 09:19:04.044 [main] INFO  hagrid.demand.DemandProcessor - Chart saved successfully at: phd/output/demand_clustering/ClusterResults_dhl_31303.png
2024-06-25 09:19:04.046 [main] INFO  hagrid.demand.DemandProcessor - Assigned Demand for new Carrier dhl_31303_0: 537
2024-06-25 09:19:04.046 [main] INFO  hagrid.demand.DemandProcessor - Assigned Demand for new Carrier dhl_31303_1: 536
2024-06-25 09:19:04.048 [main] INFO  hagrid.demand.DemandProcessor - Need for Split: dhl_30952: Number of Deliveries: 692
2024-06-25 09:19:04.048 [main] INFO  hagrid.demand.DemandProcessor - Initializing KMeans clustering with 2 clusters...
2024-06-25 09:19:04.051 [main] INFO  hagrid.demand.DemandProcessor - Cluster 1: 346 features
2024-06-25 09:19:04.054 [main] INFO  hagrid.demand.DemandProcessor - Cluster 2: 346 features
2024-06-25 09:19:04.054 [main] INFO  hagrid.demand.DemandProcessor - Total number of clusters created: 2
2024-06-25 09:19:04.189 [main] INFO  hagrid.demand.DemandProcessor - Chart saved successfully at: phd/output/demand_clustering/ClusterResults_dhl_30952.png
2024-06-25 09:19:04.193 [main] INFO  hagrid.demand.DemandProcessor - Assigned Demand for new Carrier dhl_30952_0: 346
2024-06-25 09:19:04.194 [main] INFO  hagrid.demand.DemandProcessor - Assigned Demand for new Carrier dhl_30952_1: 346
2024-06-25 09:19:04.197 [main] INFO  hagrid.demand.DemandProcessor - Need for Split: dpd_30855: Number of Deliveries: 645
2024-06-25 09:19:04.197 [main] INFO  hagrid.demand.DemandProcessor - Initializing KMeans clustering with 2 clusters...
2024-06-25 09:19:04.206 [main] INFO  hagrid.demand.DemandProcessor - Cluster 1: 323 features
2024-06-25 09:19:04.207 [main] INFO  hagrid.demand.DemandProcessor - Cluster 2: 322 features
2024-06-25 09:19:04.209 [main] INFO  hagrid.demand.DemandProcessor - Total number of clusters created: 2
2024-06-25 09:19:04.333 [main] INFO  hagrid.demand.DemandProcessor - Chart saved successfully at: phd/output/demand_clustering/ClusterResults_dpd_30855.png
2024-06-25 09:19:04.334 [main] INFO  hagrid.demand.DemandProcessor - Assigned Demand for new Carrier dpd_30855_0: 323
2024-06-25 09:19:04.334 [main] INFO  hagrid.demand.DemandProcessor - Assigned Demand for new Carrier dpd_30855_1: 322
2024-06-25 09:19:04.336 [main] INFO  hagrid.demand.DemandProcessor - Need for Split: dhl_30855: Number of Deliveries: 1052
2024-06-25 09:19:04.336 [main] INFO  hagrid.demand.DemandProcessor - Initializing KMeans clustering with 2 clusters...
2024-06-25 09:19:04.345 [main] INFO  hagrid.demand.DemandProcessor - Cluster 1: 526 features
2024-06-25 09:19:04.345 [main] INFO  hagrid.demand.DemandProcessor - Cluster 2: 526 features
2024-06-25 09:19:04.345 [main] INFO  hagrid.demand.DemandProcessor - Total number of clusters created: 2
2024-06-25 09:19:04.468 [main] INFO  hagrid.demand.DemandProcessor - Chart saved successfully at: phd/output/demand_clustering/ClusterResults_dhl_30855.png
2024-06-25 09:19:04.469 [main] INFO  hagrid.demand.DemandProcessor - Assigned Demand for new Carrier dhl_30855_0: 526
2024-06-25 09:19:04.469 [main] INFO  hagrid.demand.DemandProcessor - Assigned Demand for new Carrier dhl_30855_1: 526
2024-06-25 09:19:04.470 [main] INFO  hagrid.demand.DemandProcessor - Need for Split: dhl_30559: Number of Deliveries: 682
2024-06-25 09:19:04.470 [main] INFO  hagrid.demand.DemandProcessor - Initializing KMeans clustering with 2 clusters...
2024-06-25 09:19:04.472 [main] INFO  hagrid.demand.DemandProcessor - Cluster 1: 341 features
2024-06-25 09:19:04.472 [main] INFO  hagrid.demand.DemandProcessor - Cluster 2: 341 features
2024-06-25 09:19:04.472 [main] INFO  hagrid.demand.DemandProcessor - Total number of clusters created: 2
2024-06-25 09:19:04.561 [main] INFO  hagrid.demand.DemandProcessor - Chart saved successfully at: phd/output/demand_clustering/ClusterResults_dhl_30559.png
2024-06-25 09:19:04.565 [main] INFO  hagrid.demand.DemandProcessor - Assigned Demand for new Carrier dhl_30559_0: 341
2024-06-25 09:19:04.570 [main] INFO  hagrid.demand.DemandProcessor - Assigned Demand for new Carrier dhl_30559_1: 341
2024-06-25 09:19:04.572 [main] INFO  hagrid.demand.DemandProcessor - Need for Split: dpd_31535: Number of Deliveries: 641
2024-06-25 09:19:04.573 [main] INFO  hagrid.demand.DemandProcessor - Initializing KMeans clustering with 2 clusters...
2024-06-25 09:19:04.582 [main] INFO  hagrid.demand.DemandProcessor - Cluster 1: 321 features
2024-06-25 09:19:04.584 [main] INFO  hagrid.demand.DemandProcessor - Cluster 2: 320 features
2024-06-25 09:19:04.585 [main] INFO  hagrid.demand.DemandProcessor - Total number of clusters created: 2
2024-06-25 09:19:04.684 [main] INFO  hagrid.demand.DemandProcessor - Chart saved successfully at: phd/output/demand_clustering/ClusterResults_dpd_31535.png
2024-06-25 09:19:04.684 [main] INFO  hagrid.demand.DemandProcessor - Assigned Demand for new Carrier dpd_31535_0: 321
2024-06-25 09:19:04.685 [main] INFO  hagrid.demand.DemandProcessor - Assigned Demand for new Carrier dpd_31535_1: 320
2024-06-25 09:19:04.687 [main] INFO  hagrid.demand.DemandProcessor - Need for Split: dhl_30890: Number of Deliveries: 1138
2024-06-25 09:19:04.687 [main] INFO  hagrid.demand.DemandProcessor - Initializing KMeans clustering with 2 clusters...
2024-06-25 09:19:04.706 [main] INFO  hagrid.demand.DemandProcessor - Cluster 1: 569 features
2024-06-25 09:19:04.706 [main] INFO  hagrid.demand.DemandProcessor - Cluster 2: 569 features
2024-06-25 09:19:04.707 [main] INFO  hagrid.demand.DemandProcessor - Total number of clusters created: 2
2024-06-25 09:19:04.867 [main] INFO  hagrid.demand.DemandProcessor - Chart saved successfully at: phd/output/demand_clustering/ClusterResults_dhl_30890.png
2024-06-25 09:19:04.867 [main] INFO  hagrid.demand.DemandProcessor - Assigned Demand for new Carrier dhl_30890_0: 569
2024-06-25 09:19:04.867 [main] INFO  hagrid.demand.DemandProcessor - Assigned Demand for new Carrier dhl_30890_1: 569
2024-06-25 09:19:04.867 [main] INFO  hagrid.demand.DemandProcessor - Need for Split: ups_30855: Number of Deliveries: 717
2024-06-25 09:19:04.867 [main] INFO  hagrid.demand.DemandProcessor - Initializing KMeans clustering with 2 clusters...
2024-06-25 09:19:04.876 [main] INFO  hagrid.demand.DemandProcessor - Cluster 1: 359 features
2024-06-25 09:19:04.877 [main] INFO  hagrid.demand.DemandProcessor - Cluster 2: 358 features
2024-06-25 09:19:04.877 [main] INFO  hagrid.demand.DemandProcessor - Total number of clusters created: 2
2024-06-25 09:19:04.961 [main] INFO  hagrid.demand.DemandProcessor - Chart saved successfully at: phd/output/demand_clustering/ClusterResults_ups_30855.png
2024-06-25 09:19:04.966 [main] INFO  hagrid.demand.DemandProcessor - Assigned Demand for new Carrier ups_30855_0: 359
2024-06-25 09:19:04.969 [main] INFO  hagrid.demand.DemandProcessor - Assigned Demand for new Carrier ups_30855_1: 358
2024-06-25 09:19:04.971 [main] INFO  hagrid.demand.DemandProcessor - Need for Split: dhl_30826: Number of Deliveries: 648
2024-06-25 09:19:04.972 [main] INFO  hagrid.demand.DemandProcessor - Initializing KMeans clustering with 2 clusters...
2024-06-25 09:19:04.984 [main] INFO  hagrid.demand.DemandProcessor - Cluster 1: 324 features
2024-06-25 09:19:04.984 [main] INFO  hagrid.demand.DemandProcessor - Cluster 2: 324 features
2024-06-25 09:19:04.985 [main] INFO  hagrid.demand.DemandProcessor - Total number of clusters created: 2
2024-06-25 09:19:05.083 [main] INFO  hagrid.demand.DemandProcessor - Chart saved successfully at: phd/output/demand_clustering/ClusterResults_dhl_30826.png
2024-06-25 09:19:05.084 [main] INFO  hagrid.demand.DemandProcessor - Assigned Demand for new Carrier dhl_30826_0: 324
2024-06-25 09:19:05.085 [main] INFO  hagrid.demand.DemandProcessor - Assigned Demand for new Carrier dhl_30826_1: 324
2024-06-25 09:19:05.085 [main] INFO  hagrid.demand.DemandProcessor - Need for Split: dhl_30926: Number of Deliveries: 924
2024-06-25 09:19:05.086 [main] INFO  hagrid.demand.DemandProcessor - Initializing KMeans clustering with 2 clusters...
2024-06-25 09:19:05.091 [main] INFO  hagrid.demand.DemandProcessor - Cluster 1: 462 features
2024-06-25 09:19:05.091 [main] INFO  hagrid.demand.DemandProcessor - Cluster 2: 462 features
2024-06-25 09:19:05.091 [main] INFO  hagrid.demand.DemandProcessor - Total number of clusters created: 2
2024-06-25 09:19:05.235 [main] INFO  hagrid.demand.DemandProcessor - Chart saved successfully at: phd/output/demand_clustering/ClusterResults_dhl_30926.png
2024-06-25 09:19:05.251 [main] INFO  hagrid.demand.DemandProcessor - Assigned Demand for new Carrier dhl_30926_0: 462
2024-06-25 09:19:05.252 [main] INFO  hagrid.demand.DemandProcessor - Assigned Demand for new Carrier dhl_30926_1: 462
2024-06-25 09:19:05.252 [main] INFO  hagrid.demand.DemandProcessor - Need for Split: dhl_31832: Number of Deliveries: 1059
2024-06-25 09:19:05.254 [main] INFO  hagrid.demand.DemandProcessor - Initializing KMeans clustering with 2 clusters...
2024-06-25 09:19:05.267 [main] INFO  hagrid.demand.DemandProcessor - Cluster 1: 529 features
2024-06-25 09:19:05.268 [main] INFO  hagrid.demand.DemandProcessor - Cluster 2: 530 features
2024-06-25 09:19:05.269 [main] INFO  hagrid.demand.DemandProcessor - Total number of clusters created: 2
2024-06-25 09:19:05.344 [main] INFO  hagrid.demand.DemandProcessor - Chart saved successfully at: phd/output/demand_clustering/ClusterResults_dhl_31832.png
2024-06-25 09:19:05.344 [main] INFO  hagrid.demand.DemandProcessor - Assigned Demand for new Carrier dhl_31832_0: 529
2024-06-25 09:19:05.345 [main] INFO  hagrid.demand.DemandProcessor - Assigned Demand for new Carrier dhl_31832_1: 530
2024-06-25 09:19:05.346 [main] INFO  hagrid.demand.DemandProcessor - Need for Split: dhl_31535: Number of Deliveries: 1661
2024-06-25 09:19:05.347 [main] INFO  hagrid.demand.DemandProcessor - Initializing KMeans clustering with 3 clusters...
2024-06-25 09:19:05.373 [main] INFO  hagrid.demand.DemandProcessor - Cluster 1: 553 features
2024-06-25 09:19:05.375 [main] INFO  hagrid.demand.DemandProcessor - Cluster 2: 554 features
2024-06-25 09:19:05.376 [main] INFO  hagrid.demand.DemandProcessor - Cluster 3: 554 features
2024-06-25 09:19:05.376 [main] INFO  hagrid.demand.DemandProcessor - Total number of clusters created: 3
2024-06-25 09:19:05.501 [main] INFO  hagrid.demand.DemandProcessor - Chart saved successfully at: phd/output/demand_clustering/ClusterResults_dhl_31535.png
2024-06-25 09:19:05.503 [main] INFO  hagrid.demand.DemandProcessor - Assigned Demand for new Carrier dhl_31535_0: 553
2024-06-25 09:19:05.510 [main] INFO  hagrid.demand.DemandProcessor - Assigned Demand for new Carrier dhl_31535_1: 554
2024-06-25 09:19:05.512 [main] INFO  hagrid.demand.DemandProcessor - Assigned Demand for new Carrier dhl_31535_2: 554
2024-06-25 09:19:05.514 [main] INFO  hagrid.demand.DemandProcessor - Need for Split: dpd_31275: Number of Deliveries: 620
2024-06-25 09:19:05.514 [main] INFO  hagrid.demand.DemandProcessor - Initializing KMeans clustering with 2 clusters...
2024-06-25 09:19:05.523 [main] INFO  hagrid.demand.DemandProcessor - Cluster 1: 310 features
2024-06-25 09:19:05.524 [main] INFO  hagrid.demand.DemandProcessor - Cluster 2: 310 features
2024-06-25 09:19:05.524 [main] INFO  hagrid.demand.DemandProcessor - Total number of clusters created: 2
2024-06-25 09:19:05.634 [main] INFO  hagrid.demand.DemandProcessor - Chart saved successfully at: phd/output/demand_clustering/ClusterResults_dpd_31275.png
2024-06-25 09:19:05.635 [main] INFO  hagrid.demand.DemandProcessor - Assigned Demand for new Carrier dpd_31275_0: 310
2024-06-25 09:19:05.635 [main] INFO  hagrid.demand.DemandProcessor - Assigned Demand for new Carrier dpd_31275_1: 310
2024-06-25 09:19:05.635 [main] INFO  hagrid.demand.DemandProcessor - Need for Split: dhl_31515: Number of Deliveries: 1407
2024-06-25 09:19:05.638 [main] INFO  hagrid.demand.DemandProcessor - Initializing KMeans clustering with 3 clusters...
2024-06-25 09:19:05.676 [main] INFO  hagrid.demand.DemandProcessor - Cluster 1: 469 features
2024-06-25 09:19:05.677 [main] INFO  hagrid.demand.DemandProcessor - Cluster 2: 469 features
2024-06-25 09:19:05.678 [main] INFO  hagrid.demand.DemandProcessor - Cluster 3: 469 features
2024-06-25 09:19:05.678 [main] INFO  hagrid.demand.DemandProcessor - Total number of clusters created: 3
2024-06-25 09:19:05.801 [main] INFO  hagrid.demand.DemandProcessor - Chart saved successfully at: phd/output/demand_clustering/ClusterResults_dhl_31515.png
2024-06-25 09:19:05.801 [main] INFO  hagrid.demand.DemandProcessor - Assigned Demand for new Carrier dhl_31515_0: 469
2024-06-25 09:19:05.802 [main] INFO  hagrid.demand.DemandProcessor - Assigned Demand for new Carrier dhl_31515_1: 469
2024-06-25 09:19:05.802 [main] INFO  hagrid.demand.DemandProcessor - Assigned Demand for new Carrier dhl_31515_2: 469
2024-06-25 09:19:05.803 [main] INFO  hagrid.demand.DemandProcessor - Need for Split: dhl_30823: Number of Deliveries: 657
2024-06-25 09:19:05.804 [main] INFO  hagrid.demand.DemandProcessor - Initializing KMeans clustering with 2 clusters...
2024-06-25 09:19:05.806 [main] INFO  hagrid.demand.DemandProcessor - Cluster 1: 329 features
2024-06-25 09:19:05.806 [main] INFO  hagrid.demand.DemandProcessor - Cluster 2: 328 features
2024-06-25 09:19:05.806 [main] INFO  hagrid.demand.DemandProcessor - Total number of clusters created: 2
2024-06-25 09:19:05.944 [main] INFO  hagrid.demand.DemandProcessor - Chart saved successfully at: phd/output/demand_clustering/ClusterResults_dhl_30823.png
2024-06-25 09:19:05.945 [main] INFO  hagrid.demand.DemandProcessor - Assigned Demand for new Carrier dhl_30823_0: 329
2024-06-25 09:19:05.945 [main] INFO  hagrid.demand.DemandProcessor - Assigned Demand for new Carrier dhl_30823_1: 328
2024-06-25 09:19:05.946 [main] INFO  hagrid.demand.DemandProcessor - Need for Split: dhl_30966: Number of Deliveries: 648
2024-06-25 09:19:05.946 [main] INFO  hagrid.demand.DemandProcessor - Initializing KMeans clustering with 2 clusters...
2024-06-25 09:19:05.948 [main] INFO  hagrid.demand.DemandProcessor - Cluster 1: 324 features
2024-06-25 09:19:05.949 [main] INFO  hagrid.demand.DemandProcessor - Cluster 2: 324 features
2024-06-25 09:19:05.949 [main] INFO  hagrid.demand.DemandProcessor - Total number of clusters created: 2
2024-06-25 09:19:06.029 [main] INFO  hagrid.demand.DemandProcessor - Chart saved successfully at: phd/output/demand_clustering/ClusterResults_dhl_30966.png
2024-06-25 09:19:06.030 [main] INFO  hagrid.demand.DemandProcessor - Assigned Demand for new Carrier dhl_30966_0: 324
2024-06-25 09:19:06.030 [main] INFO  hagrid.demand.DemandProcessor - Assigned Demand for new Carrier dhl_30966_1: 324
2024-06-25 09:19:06.031 [main] INFO  hagrid.demand.DemandProcessor - Need for Split: dhl_30900: Number of Deliveries: 1308
2024-06-25 09:19:06.032 [main] INFO  hagrid.demand.DemandProcessor - Initializing KMeans clustering with 3 clusters...
2024-06-25 09:19:06.055 [main] INFO  hagrid.demand.DemandProcessor - Cluster 1: 436 features
2024-06-25 09:19:06.056 [main] INFO  hagrid.demand.DemandProcessor - Cluster 2: 436 features
2024-06-25 09:19:06.056 [main] INFO  hagrid.demand.DemandProcessor - Cluster 3: 436 features
2024-06-25 09:19:06.056 [main] INFO  hagrid.demand.DemandProcessor - Total number of clusters created: 3
2024-06-25 09:19:06.198 [main] INFO  hagrid.demand.DemandProcessor - Chart saved successfully at: phd/output/demand_clustering/ClusterResults_dhl_30900.png
2024-06-25 09:19:06.199 [main] INFO  hagrid.demand.DemandProcessor - Assigned Demand for new Carrier dhl_30900_0: 436
2024-06-25 09:19:06.200 [main] INFO  hagrid.demand.DemandProcessor - Assigned Demand for new Carrier dhl_30900_1: 436
2024-06-25 09:19:06.201 [main] INFO  hagrid.demand.DemandProcessor - Assigned Demand for new Carrier dhl_30900_2: 436
2024-06-25 09:19:06.201 [main] INFO  hagrid.demand.DemandProcessor - Need for Split: dhl_31319: Number of Deliveries: 945
2024-06-25 09:19:06.202 [main] INFO  hagrid.demand.DemandProcessor - Initializing KMeans clustering with 2 clusters...
2024-06-25 09:19:06.206 [main] INFO  hagrid.demand.DemandProcessor - Cluster 1: 472 features
2024-06-25 09:19:06.207 [main] INFO  hagrid.demand.DemandProcessor - Cluster 2: 473 features
2024-06-25 09:19:06.208 [main] INFO  hagrid.demand.DemandProcessor - Total number of clusters created: 2
2024-06-25 09:19:06.303 [main] INFO  hagrid.demand.DemandProcessor - Chart saved successfully at: phd/output/demand_clustering/ClusterResults_dhl_31319.png
2024-06-25 09:19:06.304 [main] INFO  hagrid.demand.DemandProcessor - Assigned Demand for new Carrier dhl_31319_0: 472
2024-06-25 09:19:06.304 [main] INFO  hagrid.demand.DemandProcessor - Assigned Demand for new Carrier dhl_31319_1: 473
2024-06-25 09:19:06.353 [main] INFO  hagrid.demand.DemandProcessor - Total Number of Deliveries: 105984
2024-06-25 09:19:06.354 [main] INFO  hagrid.demand.DemandProcessor - Total Number of Parcels: 196885
2024-06-25 09:19:06.354 [main] INFO  hagrid.demand.DemandProcessor - Validation completed successfully: Total number of deliveries and parcels match.
2024-06-25 09:19:06.355 [main] INFO  hagrid.demand.DemandProcessor - Freight demand data processing completed.
2024-06-25 09:19:06.356 [main] INFO  hagrid.App - Demand data processing completed.
2024-06-25 09:19:06.356 [main] INFO  hagrid.App - Initializing DeliveryGenerator...
2024-06-25 09:19:06.359 [main] INFO  hagrid.App - Starting delivery generation based on sorted Demand...
2024-06-25 09:19:06.359 [main] INFO  hagrid.demand.DeliveryGenerator - Generating parcels from sorted carrier demand...
2024-06-25 09:19:06.361 [main] INFO  hagrid.demand.DeliveryGenerator - Total Parcels from carrier demand: 105984
2024-06-25 09:19:06.804 [main] INFO  hagrid.utils.general.ParcelStatisticsLogger - === Overall Summary ===
  Total Deliveries      : 106.028
  Total B2B Deliveries  : 19.188
  Total Parcels         : 197.985
  Total B2B Parcels     : 47.252
  B2B Delivery Ratio    : 18,10%
  B2B Parcel Ratio      : 23,87%
  Average Weight        : 4,89
  Average B2B Weight    : 9,12
  Total Locker Deliveries: 44
  Total Locker Parcels: 1.100
  Locker Delivery Ratio : 0,04%
  Locker Parcel Ratio : 0,56%

2024-06-25 09:19:06.806 [main] INFO  hagrid.demand.DeliveryGenerator - Parcel generation completed.
2024-06-25 09:19:06.806 [main] INFO  hagrid.App - Delivery and parcel generation completed.
2024-06-25 09:19:06.807 [main] INFO  hagrid.App - Initializing CarrierGenerator...
2024-06-25 09:19:06.807 [main] INFO  hagrid.App - Starting carrier generation based on sorted demand...
2024-06-25 09:19:06.808 [main] INFO  hagrid.demand.CarrierGenerator - Generating carriers from sorted deliveries and parcels...
2024-06-25 09:19:06.808 [main] INFO  hagrid.demand.CarrierGenerator - Getting scenario elements...
2024-06-25 09:19:06.808 [main] INFO  hagrid.demand.CarrierGenerator - Scenario elements retrieved.
2024-06-25 09:19:06.826 [main] INFO  org.matsim.core.network.NetworkImpl - building LinkQuadTree for nodes: xrange(288335.4442501353,953227.577157235); yrange(5242845.444958333,6003702.4934690865)
2024-06-25 09:19:06.904 [main] INFO  org.matsim.core.network.NetworkImpl - Building LinkQuadTree took 0.082 seconds.
2024-06-25 09:19:08.798 [main] INFO  hagrid.demand.CarrierGenerator - Carrier with the most services: amazon_30855 with 598 services
2024-06-25 09:19:08.799 [main] INFO  hagrid.demand.CarrierGenerator - Carrier with the least services: hermes_30938 with 61 services
2024-06-25 09:19:08.800 [main] INFO  hagrid.demand.CarrierGenerator - Number of carriers with fewer than 5 services: 0
2024-06-25 09:19:08.801 [main] INFO  hagrid.demand.CarrierGenerator - Carriers with insufficient services: []
2024-06-25 09:19:08.801 [main] INFO  hagrid.demand.CarrierGenerator - Number of remaining carriers: 389
2024-06-25 09:19:08.802 [main] INFO  hagrid.demand.CarrierGenerator - Carriers generated: 389
2024-06-25 09:19:08.802 [main] INFO  hagrid.demand.CarrierGenerator - Validating carrier missed deliveries...
2024-06-25 09:19:08.803 [main] INFO  hagrid.demand.CarrierGenerator - Validation passed for all carriers and their missed parcel deliveries.
2024-06-25 09:19:08.803 [main] INFO  hagrid.demand.CarrierGenerator - Validation of carrier missed deliveries completed.
2024-06-25 09:19:08.803 [main] INFO  hagrid.demand.CarrierGenerator - Validating carrier services...
2024-06-25 09:19:08.865 [main] INFO  hagrid.demand.CarrierGenerator - Correction factor for Delivery Size Adjustment: 1
2024-06-25 09:19:09.017 [main] INFO  hagrid.demand.CarrierGenerator - Missed parcels for provider amazon: average rate 93,15%
2024-06-25 09:19:09.021 [main] INFO  hagrid.demand.CarrierGenerator - Expected rate for provider amazon: 93,00%
2024-06-25 09:19:09.021 [main] INFO  hagrid.demand.CarrierGenerator - Missed parcels for provider fedex: average rate 92,11%
2024-06-25 09:19:09.023 [main] INFO  hagrid.demand.CarrierGenerator - Expected rate for provider fedex: 92,00%
2024-06-25 09:19:09.023 [main] INFO  hagrid.demand.CarrierGenerator - Missed parcels for provider ups: average rate 91,66%
2024-06-25 09:19:09.023 [main] INFO  hagrid.demand.CarrierGenerator - Expected rate for provider ups: 92,00%
2024-06-25 09:19:09.024 [main] INFO  hagrid.demand.CarrierGenerator - Missed parcels for provider dpd: average rate 92,20%
2024-06-25 09:19:09.024 [main] INFO  hagrid.demand.CarrierGenerator - Expected rate for provider dpd: 92,00%
2024-06-25 09:19:09.024 [main] INFO  hagrid.demand.CarrierGenerator - Missed parcels for provider dhl: average rate 95,40%
2024-06-25 09:19:09.024 [main] INFO  hagrid.demand.CarrierGenerator - Expected rate for provider dhl: 96,00%
2024-06-25 09:19:09.024 [main] INFO  hagrid.demand.CarrierGenerator - Missed parcels for provider hermes: average rate 93,46%
2024-06-25 09:19:09.024 [main] INFO  hagrid.demand.CarrierGenerator - Expected rate for provider hermes: 93,00%
2024-06-25 09:19:09.024 [main] INFO  hagrid.demand.CarrierGenerator - Missed parcels for provider gls: average rate 93,17%
2024-06-25 09:19:09.024 [main] INFO  hagrid.demand.CarrierGenerator - Expected rate for provider gls: 93,00%
2024-06-25 09:19:09.252 [main] INFO  hagrid.demand.CarrierGenerator - === Delivery Statistics by Provider ===
Provider: amazon
  Total Services     : 12.592
  B2B Services       : 283
  Total Parcels      : 18.401
  B2B Parcels        : 532
  B2B Service Ratio  : 2,25%
  B2B Parcel Ratio   : 2,89%
  Total Weight       : 73322,96
  Total B2B Weight   : 5186,57
  Average Weight     : 3,98
  Average B2B Weight : 9,75

Provider: fedex
  Total Services     : 9.911
  B2B Services       : 2.115
  Total Parcels      : 13.225
  B2B Parcels        : 3.415
  B2B Service Ratio  : 21,34%
  B2B Parcel Ratio   : 25,82%
  Total Weight       : 69172,62
  Total B2B Weight   : 31988,50
  Average Weight     : 5,23
  Average B2B Weight : 9,37

Provider: ups
  Total Services     : 16.314
  B2B Services       : 3.286
  Total Parcels      : 26.491
  B2B Parcels        : 6.854
  B2B Service Ratio  : 20,14%
  B2B Parcel Ratio   : 25,87%
  Total Weight       : 138526,50
  Total B2B Weight   : 63491,26
  Average Weight     : 5,23
  Average B2B Weight : 9,26

Provider: dpd
  Total Services     : 14.390
  B2B Services       : 3.027
  Total Parcels      : 22.122
  B2B Parcels        : 5.919
  B2B Service Ratio  : 21,04%
  B2B Parcel Ratio   : 26,76%
  Total Weight       : 117755,77
  Total B2B Weight   : 55283,49
  Average Weight     : 5,32
  Average B2B Weight : 9,34

Provider: dhl
  Total Services     : 31.058
  B2B Services       : 5.879
  Total Parcels      : 87.462
  B2B Parcels        : 22.822
  B2B Service Ratio  : 18,93%
  B2B Parcel Ratio   : 26,09%
  Total Weight       : 463073,84
  Total B2B Weight   : 213864,82
  Average Weight     : 5,29
  Average B2B Weight : 9,37

Provider: hermes
  Total Services     : 9.570
  B2B Services       : 2.091
  Total Parcels      : 12.603
  B2B Parcels        : 3.160
  B2B Service Ratio  : 21,85%
  B2B Parcel Ratio   : 25,07%
  Total Weight       : 65438,71
  Total B2B Weight   : 29347,90
  Average Weight     : 5,19
  Average B2B Weight : 9,29

Provider: gls
  Total Services     : 12.194
  B2B Services       : 2.508
  Total Parcels      : 17.681
  B2B Parcels        : 4.550
  B2B Service Ratio  : 20,57%
  B2B Parcel Ratio   : 25,73%
  Total Weight       : 91608,59
  Total B2B Weight   : 41533,60
  Average Weight     : 5,18
  Average B2B Weight : 9,13

=== Total Statistics ===
Total Services     : 106.029
Total B2B Services : 19.189
Total Parcels      : 197.985
Total B2B Parcels  : 47.252
Total Weight       : 1018898,99
Total B2B Weight   : 440696,14
Average Weight     : 5,15
Average B2B Weight : 9,33

2024-06-25 09:19:09.266 [main] INFO  hagrid.demand.CarrierGenerator - Validation passed: All carrier services match the original deliveries summary.
2024-06-25 09:19:09.266 [main] INFO  hagrid.demand.CarrierGenerator - Total deliveries match: 106028.
2024-06-25 09:19:09.266 [main] INFO  hagrid.demand.CarrierGenerator - Total parcels match: 197985.
2024-06-25 09:19:09.267 [main] INFO  hagrid.demand.CarrierGenerator - Total B2B deliveries match: 19188.
2024-06-25 09:19:09.267 [main] INFO  hagrid.demand.CarrierGenerator - Total B2B parcels match: 47252.
2024-06-25 09:19:09.268 [main] INFO  hagrid.demand.CarrierGenerator - Validation of carrier completed.
2024-06-25 09:19:09.268 [main] INFO  hagrid.demand.CarrierGenerator - Starting validation of supply demand...
2024-06-25 09:19:09.279 [main] INFO  hagrid.demand.CarrierGenerator - Hub ID: dhl_hannover_sued, Assigned Supply Demand: 12027
2024-06-25 09:19:09.279 [main] INFO  hagrid.demand.CarrierGenerator - Hub ID: dp/dhl_burgdorf, Assigned Supply Demand: 3961
2024-06-25 09:19:09.280 [main] INFO  hagrid.demand.CarrierGenerator - Hub ID: dhl_hannover_gueterbahnhof, Assigned Supply Demand: 24791
2024-06-25 09:19:09.280 [main] INFO  hagrid.demand.CarrierGenerator - Hub ID: dpd_lehrte, Assigned Supply Demand: 22122
2024-06-25 09:19:09.281 [main] INFO  hagrid.demand.CarrierGenerator - Hub ID: dhl_pattensen, Assigned Supply Demand: 4634
2024-06-25 09:19:09.282 [main] INFO  hagrid.demand.CarrierGenerator - Hub ID: gls_laatzen, Assigned Supply Demand: 17681
2024-06-25 09:19:09.282 [main] INFO  hagrid.demand.CarrierGenerator - Hub ID: dp/dhl_springe, Assigned Supply Demand: 2086
2024-06-25 09:19:09.282 [main] INFO  hagrid.demand.CarrierGenerator - Hub ID: dp/dhl_garbsen, Assigned Supply Demand: 3474
2024-06-25 09:19:09.283 [main] INFO  hagrid.demand.CarrierGenerator - Hub ID: dp/dhl_seelze, Assigned Supply Demand: 4517
2024-06-25 09:19:09.283 [main] INFO  hagrid.demand.CarrierGenerator - Hub ID: hermes_langenhagen, Assigned Supply Demand: 12603
2024-06-25 09:19:09.284 [main] INFO  hagrid.demand.CarrierGenerator - Hub ID: dp/dhl_wunstorf, Assigned Supply Demand: 4299
2024-06-25 09:19:09.284 [main] INFO  hagrid.demand.CarrierGenerator - Hub ID: dp/dhl_wedemark, Assigned Supply Demand: 7677
2024-06-25 09:19:09.284 [main] INFO  hagrid.demand.CarrierGenerator - Hub ID: dp/dhl_uetze, Assigned Supply Demand: 1468
2024-06-25 09:19:09.285 [main] INFO  hagrid.demand.CarrierGenerator - Hub ID: dp/dhl_lehrte, Assigned Supply Demand: 3157
2024-06-25 09:19:09.285 [main] INFO  hagrid.demand.CarrierGenerator - Hub ID: dp/dhl_neustadt_am_ruebenberge, Assigned Supply Demand: 3191
2024-06-25 09:19:09.285 [main] INFO  hagrid.demand.CarrierGenerator - Hub ID: dhl_hannover_anderten, Assigned Supply Demand: 7838
2024-06-25 09:19:09.286 [main] INFO  hagrid.demand.CarrierGenerator - Hub ID: amazon_garbsen, Assigned Supply Demand: 18401
2024-06-25 09:19:09.286 [main] INFO  hagrid.demand.CarrierGenerator - Hub ID: fedex_hannover, Assigned Supply Demand: 13225
2024-06-25 09:19:09.286 [main] INFO  hagrid.demand.CarrierGenerator - Hub ID: ups_hannover, Assigned Supply Demand: 26491
2024-06-25 09:19:09.286 [main] INFO  hagrid.demand.CarrierGenerator - Hub ID: dp/dhl_wennigsen, Assigned Supply Demand: 3487
2024-06-25 09:19:09.288 [main] INFO  hagrid.demand.CarrierGenerator - Hub ID: dp/dhl_sehnde, Assigned Supply Demand: 855
2024-06-25 09:19:09.288 [main] INFO  hagrid.demand.CarrierGenerator - Total Parcels: 197985, Total Assigned Supply Demand: 197985
2024-06-25 09:19:09.288 [main] INFO  hagrid.demand.CarrierGenerator - Validation successful: Total parcels match total assigned supply demand.
2024-06-25 09:19:09.289 [main] INFO  hagrid.utils.general.HAGRIDUtils - Starting to check and log carrier attributes
2024-06-25 09:19:09.796 [main] INFO  hagrid.demand.CarrierGenerator - Carrier generation completed.
2024-06-25 09:19:09.800 [main] INFO  org.matsim.freight.carriers.CarrierPlanXmlWriterV2_1 - write carrier plans
2024-06-25 09:19:09.816 [main] WARN  org.matsim.utils.objectattributes.ObjectAttributesConverter - No AttributeConverter found for class hagrid.utils.demand.Hub. Not all attribute values can be converted.
2024-06-25 09:19:10.939 [main] INFO  org.matsim.freight.carriers.CarrierPlanXmlWriterV2_1 - done
2024-06-25 09:19:10.941 [main] INFO  hagrid.App - Carrier generation completed.
2024-06-25 09:19:10.941 [main] INFO  hagrid.App - Initializing SupplyCarrierGenerator...
2024-06-25 09:19:10.946 [main] INFO  hagrid.App - Starting supply carrier generation based on generated carriers...
2024-06-25 09:19:10.946 [main] INFO  hagrid.demand.SupplyCarrierGenerator - Starting supply carrier generation...
2024-06-25 09:19:10.947 [main] INFO  hagrid.demand.SupplyCarrierGenerator - Retrieved 389 carriers from the scenario.
2024-06-25 09:19:10.947 [main] INFO  hagrid.demand.SupplyCarrierGenerator - Retrieved 21 hubs, 12 vehicle types, and network from the scenario.
2024-06-25 09:19:10.956 [main] INFO  hagrid.demand.SupplyCarrierGenerator - Created supply carrier for hub dhl_hannover_anderten with 15676 parcels
2024-06-25 09:19:10.957 [main] INFO  hagrid.demand.SupplyCarrierGenerator - Processing hub: dhl_hannover_sued
2024-06-25 09:19:10.957 [main] INFO  hagrid.demand.SupplyCarrierGenerator - Hub dhl_hannover_sued: Assigned Demand = 24054, Carrier Demand = 39730
2024-06-25 09:19:10.958 [main] INFO  hagrid.demand.SupplyCarrierGenerator - Processing hub: dp/dhl_burgdorf
2024-06-25 09:19:10.958 [main] INFO  hagrid.demand.SupplyCarrierGenerator - Created supply carrier for hub dp/dhl_burgdorf with 7922 parcels
2024-06-25 09:19:10.959 [main] INFO  hagrid.demand.SupplyCarrierGenerator - Hub dp/dhl_burgdorf: Assigned Demand = 7922, Carrier Demand = 7922
2024-06-25 09:19:10.959 [main] INFO  hagrid.demand.SupplyCarrierGenerator - Processing hub: dhl_hannover_gueterbahnhof
2024-06-25 09:19:10.960 [main] INFO  hagrid.demand.SupplyCarrierGenerator - Hub dhl_hannover_gueterbahnhof: Assigned Demand = 49582, Carrier Demand = 89312
2024-06-25 09:19:10.961 [main] INFO  hagrid.demand.SupplyCarrierGenerator - Processing hub: dpd_lehrte
2024-06-25 09:19:10.961 [main] INFO  hagrid.demand.SupplyCarrierGenerator - Created supply carrier for hub dpd_lehrte with 44244 parcels
2024-06-25 09:19:10.962 [main] INFO  hagrid.demand.SupplyCarrierGenerator - Hub dpd_lehrte: Assigned Demand = 44244, Carrier Demand = 44244
2024-06-25 09:19:10.962 [main] INFO  hagrid.demand.SupplyCarrierGenerator - Processing hub: dhl_pattensen
2024-06-25 09:19:10.962 [main] INFO  hagrid.demand.SupplyCarrierGenerator - Hub dhl_pattensen: Assigned Demand = 9268, Carrier Demand = 98580
2024-06-25 09:19:10.963 [main] INFO  hagrid.demand.SupplyCarrierGenerator - Processing hub: gls_laatzen
2024-06-25 09:19:10.964 [main] INFO  hagrid.demand.SupplyCarrierGenerator - Created supply carrier for hub gls_laatzen with 35362 parcels
2024-06-25 09:19:10.964 [main] INFO  hagrid.demand.SupplyCarrierGenerator - Hub gls_laatzen: Assigned Demand = 35362, Carrier Demand = 35362
2024-06-25 09:19:10.964 [main] INFO  hagrid.demand.SupplyCarrierGenerator - Processing hub: dp/dhl_springe
2024-06-25 09:19:10.966 [main] INFO  hagrid.demand.SupplyCarrierGenerator - Created supply carrier for hub dp/dhl_springe with 4172 parcels
2024-06-25 09:19:10.966 [main] INFO  hagrid.demand.SupplyCarrierGenerator - Hub dp/dhl_springe: Assigned Demand = 4172, Carrier Demand = 4172
2024-06-25 09:19:10.967 [main] INFO  hagrid.demand.SupplyCarrierGenerator - Processing hub: dp/dhl_garbsen
2024-06-25 09:19:10.967 [main] INFO  hagrid.demand.SupplyCarrierGenerator - Created supply carrier for hub dp/dhl_garbsen with 6948 parcels
2024-06-25 09:19:10.968 [main] INFO  hagrid.demand.SupplyCarrierGenerator - Hub dp/dhl_garbsen: Assigned Demand = 6948, Carrier Demand = 6948
2024-06-25 09:19:10.968 [main] INFO  hagrid.demand.SupplyCarrierGenerator - Processing hub: dp/dhl_seelze
2024-06-25 09:19:10.968 [main] INFO  hagrid.demand.SupplyCarrierGenerator - Created supply carrier for hub dp/dhl_seelze with 9034 parcels
2024-06-25 09:19:10.968 [main] INFO  hagrid.demand.SupplyCarrierGenerator - Hub dp/dhl_seelze: Assigned Demand = 9034, Carrier Demand = 9034
2024-06-25 09:19:10.969 [main] INFO  hagrid.demand.SupplyCarrierGenerator - Processing hub: hermes_langenhagen
2024-06-25 09:19:10.970 [main] INFO  hagrid.demand.SupplyCarrierGenerator - Created supply carrier for hub hermes_langenhagen with 25206 parcels
2024-06-25 09:19:10.970 [main] INFO  hagrid.demand.SupplyCarrierGenerator - Hub hermes_langenhagen: Assigned Demand = 25206, Carrier Demand = 25206
2024-06-25 09:19:10.972 [main] INFO  hagrid.demand.SupplyCarrierGenerator - Processing hub: dp/dhl_wunstorf
2024-06-25 09:19:10.973 [main] INFO  hagrid.demand.SupplyCarrierGenerator - Created supply carrier for hub dp/dhl_wunstorf with 8598 parcels
2024-06-25 09:19:10.973 [main] INFO  hagrid.demand.SupplyCarrierGenerator - Hub dp/dhl_wunstorf: Assigned Demand = 8598, Carrier Demand = 8598
2024-06-25 09:19:10.974 [main] INFO  hagrid.demand.SupplyCarrierGenerator - Processing hub: dp/dhl_wedemark
2024-06-25 09:19:10.974 [main] INFO  hagrid.demand.SupplyCarrierGenerator - Created supply carrier for hub dp/dhl_wedemark with 15354 parcels
2024-06-25 09:19:10.975 [main] INFO  hagrid.demand.SupplyCarrierGenerator - Hub dp/dhl_wedemark: Assigned Demand = 15354, Carrier Demand = 15354
2024-06-25 09:19:10.975 [main] INFO  hagrid.demand.SupplyCarrierGenerator - Processing hub: dp/dhl_uetze
2024-06-25 09:19:10.976 [main] INFO  hagrid.demand.SupplyCarrierGenerator - Created supply carrier for hub dp/dhl_uetze with 2936 parcels
2024-06-25 09:19:10.976 [main] INFO  hagrid.demand.SupplyCarrierGenerator - Hub dp/dhl_uetze: Assigned Demand = 2936, Carrier Demand = 2936
2024-06-25 09:19:10.977 [main] INFO  hagrid.demand.SupplyCarrierGenerator - Processing hub: dp/dhl_lehrte
2024-06-25 09:19:10.978 [main] INFO  hagrid.demand.SupplyCarrierGenerator - Created supply carrier for hub dp/dhl_lehrte with 6314 parcels
2024-06-25 09:19:10.979 [main] INFO  hagrid.demand.SupplyCarrierGenerator - Hub dp/dhl_lehrte: Assigned Demand = 6314, Carrier Demand = 6314
2024-06-25 09:19:10.979 [main] INFO  hagrid.demand.SupplyCarrierGenerator - Processing hub: dp/dhl_neustadt_am_ruebenberge
2024-06-25 09:19:10.980 [main] INFO  hagrid.demand.SupplyCarrierGenerator - Created supply carrier for hub dp/dhl_neustadt_am_ruebenberge with 6382 parcels
2024-06-25 09:19:10.980 [main] INFO  hagrid.demand.SupplyCarrierGenerator - Hub dp/dhl_neustadt_am_ruebenberge: Assigned Demand = 6382, Carrier Demand = 6382
2024-06-25 09:19:10.981 [main] INFO  hagrid.demand.SupplyCarrierGenerator - Processing hub: dhl_hannover_anderten
2024-06-25 09:19:10.981 [main] INFO  hagrid.demand.SupplyCarrierGenerator - Hub dhl_hannover_anderten: Assigned Demand = 15676, Carrier Demand = 98580
2024-06-25 09:19:10.981 [main] INFO  hagrid.demand.SupplyCarrierGenerator - Processing hub: amazon_garbsen
2024-06-25 09:19:10.981 [main] INFO  hagrid.demand.SupplyCarrierGenerator - Created supply carrier for hub amazon_garbsen with 36802 parcels
2024-06-25 09:19:10.983 [main] INFO  hagrid.demand.SupplyCarrierGenerator - Hub amazon_garbsen: Assigned Demand = 36802, Carrier Demand = 36802
2024-06-25 09:19:10.983 [main] INFO  hagrid.demand.SupplyCarrierGenerator - Processing hub: fedex_hannover
2024-06-25 09:19:10.984 [main] INFO  hagrid.demand.SupplyCarrierGenerator - Created supply carrier for hub fedex_hannover with 26450 parcels
2024-06-25 09:19:10.984 [main] INFO  hagrid.demand.SupplyCarrierGenerator - Hub fedex_hannover: Assigned Demand = 26450, Carrier Demand = 26450
2024-06-25 09:19:10.985 [main] INFO  hagrid.demand.SupplyCarrierGenerator - Processing hub: ups_hannover
2024-06-25 09:19:10.985 [main] INFO  hagrid.demand.SupplyCarrierGenerator - Created supply carrier for hub ups_hannover with 52982 parcels
2024-06-25 09:19:10.986 [main] INFO  hagrid.demand.SupplyCarrierGenerator - Hub ups_hannover: Assigned Demand = 52982, Carrier Demand = 52982
2024-06-25 09:19:10.986 [main] INFO  hagrid.demand.SupplyCarrierGenerator - Processing hub: dp/dhl_wennigsen
2024-06-25 09:19:10.988 [main] INFO  hagrid.demand.SupplyCarrierGenerator - Created supply carrier for hub dp/dhl_wennigsen with 6974 parcels
2024-06-25 09:19:10.988 [main] INFO  hagrid.demand.SupplyCarrierGenerator - Hub dp/dhl_wennigsen: Assigned Demand = 6974, Carrier Demand = 6974
2024-06-25 09:19:10.989 [main] INFO  hagrid.demand.SupplyCarrierGenerator - Processing hub: dp/dhl_sehnde
2024-06-25 09:19:10.989 [main] INFO  hagrid.demand.SupplyCarrierGenerator - Created supply carrier for hub dp/dhl_sehnde with 1710 parcels
2024-06-25 09:19:10.990 [main] INFO  hagrid.demand.SupplyCarrierGenerator - Hub dp/dhl_sehnde: Assigned Demand = 1710, Carrier Demand = 1710
2024-06-25 09:19:10.990 [main] INFO  hagrid.demand.SupplyCarrierGenerator - Processing hub: dhl_hannover_anderten
2024-06-25 09:19:10.990 [main] INFO  hagrid.demand.SupplyCarrierGenerator - Created supply carrier for hub dhl_hannover_anderten with 15676 parcels
2024-06-25 09:19:10.991 [main] INFO  hagrid.demand.SupplyCarrierGenerator - Hub dhl_hannover_anderten: Assigned Demand = 15676, Carrier Demand = 1710
2024-06-25 09:19:10.992 [main] INFO  hagrid.demand.SupplyCarrierGenerator - Starting validation of direct supply carriers...
2024-06-25 09:19:10.994 [main] INFO  hagrid.demand.SupplyCarrierGenerator - Hub dpd_lehrte: Assigned Demand = 44244, Carrier Demand = 44244
2024-06-25 09:19:10.994 [main] INFO  hagrid.demand.SupplyCarrierGenerator - Hub gls_laatzen: Assigned Demand = 35362, Carrier Demand = 35362
2024-06-25 09:19:10.995 [main] INFO  hagrid.demand.SupplyCarrierGenerator - Hub hermes_langenhagen: Assigned Demand = 25206, Carrier Demand = 25206
2024-06-25 09:19:10.995 [main] INFO  hagrid.demand.SupplyCarrierGenerator - Hub amazon_garbsen: Assigned Demand = 36802, Carrier Demand = 36802
2024-06-25 09:19:10.996 [main] INFO  hagrid.demand.SupplyCarrierGenerator - Hub fedex_hannover: Assigned Demand = 26450, Carrier Demand = 26450
2024-06-25 09:19:10.996 [main] INFO  hagrid.demand.SupplyCarrierGenerator - Hub ups_hannover: Assigned Demand = 52982, Carrier Demand = 52982
2024-06-25 09:19:10.996 [main] INFO  hagrid.demand.SupplyCarrierGenerator - Validation successful: Total assigned direct supply demand matches total direct supply carrier demand.
2024-06-25 09:19:10.998 [main] ERROR hagrid.demand.SupplyCarrierGenerator - Validation failed: Total DHL assigned supply demand (174924) does not match carrier demand to Anderten (114256)
2024-06-25 09:19:10.999 [main] ERROR hagrid.demand.SupplyCarrierGenerator - Error generating supply carriers
hagrid.demand.SupplyCarrierValidationException: Validation failed: Total DHL assigned supply demand (174924) does not match carrier demand to Anderten (114256)
	at hagrid.demand.SupplyCarrierGenerator.validateIndirectSupplyCarriers(SupplyCarrierGenerator.java:354) ~[classes/:?]
	at hagrid.demand.SupplyCarrierGenerator.validateSupplyCarriers(SupplyCarrierGenerator.java:290) ~[classes/:?]
	at hagrid.demand.SupplyCarrierGenerator.run(SupplyCarrierGenerator.java:65) [classes/:?]
	at hagrid.App.runSupplyGeneration(App.java:131) [classes/:?]
	at hagrid.App.main(App.java:30) [classes/:?]
2024-06-25 09:19:11.012 [main] INFO  hagrid.App - Supply carrier generation completed.
2024-06-25 09:19:11.012 [main] INFO  hagrid.App - Application finished.
2024-06-25 09:22:04.604 [main] INFO  hagrid.App - Starting application...
2024-06-25 09:22:04.786 [main] INFO  org.matsim.core.utils.io.IOUtils - Resolved phd/input/config.xml to phd\input\config.xml
2024-06-25 09:22:04.786 [main] INFO  org.matsim.core.config.Config - setting context to [file:/C:/Users/bienzeisler/Documents/GitHub/HAGRID/]
2024-06-25 09:22:04.901 [main] INFO  org.hibernate.validator.internal.util.Version - HV000001: Hibernate Validator 7.0.1.Final
2024-06-25 09:22:05.203 [main] INFO  org.matsim.core.utils.io.MatsimXmlParser - starting to parse xml from url file:/C:/Users/bienzeisler/Documents/GitHub/HAGRID/phd/input/config.xml ...
2024-06-25 09:22:05.277 [main] INFO  org.matsim.core.config.ConfigReader - using config_v2-reader
2024-06-25 09:22:05.278 [main] INFO  org.matsim.core.utils.io.MatsimXmlParser - Trying to load http://www.matsim.org/files/dtd/config_v2.dtd. In some cases (e.g. network interface up but no connection), this may take a bit.
2024-06-25 09:22:05.371 [main] INFO  org.matsim.core.config.groups.GlobalConfigGroup - setting number of threads to: 2
2024-06-25 09:22:05.396 [main] WARN  org.matsim.core.config.groups.ScoringConfigGroup - Setting pathSizeLogitBeta different from zero is experimental.  KN, Sep'08
2024-06-25 09:22:05.412 [main] INFO  org.matsim.core.config.groups.ScoringConfigGroup - scoring parameters for subpopulation null were just replaced.
2024-06-25 09:22:05.427 [main] WARN  org.matsim.core.config.groups.RoutingConfigGroup - The first mode routing (= teleported mode) params that are explicitly defined clear the default mode routing (= teleported mode) params.  If you want to avoid this 
2024-06-25 09:22:05.429 [main] WARN  org.matsim.core.config.groups.RoutingConfigGroup -     warning, use clearTeleportedModeParams(true) in code, and "clearDefaultTeleportedModeParams"=true in xml config.
2024-06-25 09:22:05.458 [main] INFO  org.matsim.core.config.Config - setting context to [file:/C:/Users/bienzeisler/Documents/GitHub/HAGRID/phd/input/config.xml]
2024-06-25 09:22:05.481 [main] INFO  org.matsim.core.scenario.ScenarioLoaderImpl - no facilities file set in config, therefore not loading any facilities.  This is not a problem except if you are using facilities
2024-06-25 09:22:05.481 [main] INFO  org.matsim.core.scenario.ScenarioLoaderImpl - no facility-attributes file set in config, not loading any facility attributes
2024-06-25 09:22:05.481 [main] INFO  org.matsim.core.scenario.ScenarioLoaderImpl - no population file set in config, not able to load population
2024-06-25 09:22:05.481 [main] INFO  org.matsim.core.scenario.ScenarioLoaderImpl - no person-attributes file set in config, not loading any person attributes
2024-06-25 09:22:05.483 [main] INFO  org.matsim.core.scenario.ScenarioLoaderImpl - no households file set in config, not loading households
2024-06-25 09:22:05.483 [main] INFO  org.matsim.core.scenario.ScenarioLoaderImpl - no transit schedule file set in config, not loading any transit schedule
2024-06-25 09:22:05.483 [main] INFO  org.matsim.core.scenario.ScenarioLoaderImpl - no transit vehicles file set in config, not loading any transit vehicles
2024-06-25 09:22:05.674 [main] INFO  hagrid.App - Initializing NetworkProcessor...
2024-06-25 09:22:05.693 [main] INFO  hagrid.App - Starting network processing...
2024-06-25 09:22:05.693 [main] INFO  hagrid.demand.NetworkProcessor - Starting network processing...
2024-06-25 09:22:05.706 [main] INFO  hagrid.demand.NetworkProcessor - Reading the network file from path: phd/input/reduced_network.xml.gz
2024-06-25 09:22:05.709 [main] INFO  org.matsim.core.utils.io.MatsimXmlParser - starting to parse xml from file phd/input/reduced_network.xml.gz ...
2024-06-25 09:22:05.710 [main] INFO  org.matsim.core.utils.io.IOUtils - Resolved phd/input/reduced_network.xml.gz to phd\input\reduced_network.xml.gz
2024-06-25 09:22:05.910 [main] INFO  org.matsim.core.network.io.MatsimNetworkReader - using network_v2-reader.
2024-06-25 09:22:05.911 [main] INFO  org.matsim.core.utils.io.MatsimXmlParser - Trying to load http://www.matsim.org/files/dtd/network_v2.dtd. In some cases (e.g. network interface up but no connection), this may take a bit.
2024-06-25 09:22:05.954 [main] INFO  org.matsim.core.network.NetworkImpl -  node # 1
2024-06-25 09:22:05.955 [main] INFO  org.matsim.core.network.NetworkImpl -  node # 4
2024-06-25 09:22:05.958 [main] INFO  org.matsim.core.network.NetworkImpl -  node # 16
2024-06-25 09:22:05.961 [main] INFO  org.matsim.core.network.NetworkImpl -  node # 64
2024-06-25 09:22:05.974 [main] INFO  org.matsim.core.network.NetworkImpl -  node # 256
2024-06-25 09:22:06.016 [main] INFO  org.matsim.core.network.NetworkImpl -  node # 1024
2024-06-25 09:22:06.070 [main] INFO  org.matsim.core.network.NetworkImpl -  node # 4096
2024-06-25 09:22:06.237 [main] INFO  org.matsim.core.network.NetworkImpl -  node # 16384
2024-06-25 09:22:06.251 [main] INFO  org.matsim.core.network.NetworkImpl -  link # 1
2024-06-25 09:22:06.262 [main] INFO  org.matsim.core.network.NetworkImpl -  link # 4
2024-06-25 09:22:06.283 [main] INFO  org.matsim.core.network.NetworkImpl -  link # 16
2024-06-25 09:22:06.301 [main] INFO  org.matsim.core.network.NetworkImpl -  link # 64
2024-06-25 09:22:06.327 [main] INFO  org.matsim.core.network.NetworkImpl -  link # 256
2024-06-25 09:22:06.406 [main] INFO  org.matsim.core.network.NetworkImpl -  link # 1024
2024-06-25 09:22:06.414 [main] WARN  org.matsim.api.core.v01.network.Link - length=0.0 of link id 1185132 may cause problems
2024-06-25 09:22:06.415 [main] WARN  org.matsim.api.core.v01.network.Link -  Future occurences of this logging statement are suppressed.
2024-06-25 09:22:06.575 [main] INFO  org.matsim.core.network.NetworkImpl -  link # 4096
2024-06-25 09:22:07.005 [main] INFO  org.matsim.core.network.NetworkImpl -  link # 16384
2024-06-25 09:22:07.105 [main] INFO  hagrid.demand.NetworkProcessor - Adjusting link lengths and free speeds...
2024-06-25 09:22:07.113 [main] INFO  hagrid.demand.NetworkProcessor - Link adjustments completed.
2024-06-25 09:22:07.114 [main] INFO  hagrid.demand.NetworkProcessor - Filtering network to include only car mode links...
2024-06-25 09:22:07.115 [main] INFO  org.matsim.core.config.Config - setting context to [file:/C:/Users/bienzeisler/Documents/GitHub/HAGRID/]
2024-06-25 09:22:07.130 [main] INFO  org.matsim.core.network.NetworkImpl -  node # 1
2024-06-25 09:22:07.131 [main] INFO  org.matsim.core.network.NetworkImpl -  node # 4
2024-06-25 09:22:07.133 [main] INFO  org.matsim.core.network.NetworkImpl -  node # 16
2024-06-25 09:22:07.134 [main] INFO  org.matsim.core.network.NetworkImpl -  node # 64
2024-06-25 09:22:07.135 [main] INFO  org.matsim.core.network.NetworkImpl -  node # 256
2024-06-25 09:22:07.138 [main] INFO  org.matsim.core.network.NetworkImpl -  node # 1024
2024-06-25 09:22:07.142 [main] INFO  org.matsim.core.network.NetworkImpl -  node # 4096
2024-06-25 09:22:07.153 [main] INFO  org.matsim.core.network.NetworkImpl -  node # 16384
2024-06-25 09:22:07.155 [main] INFO  org.matsim.core.network.NetworkImpl -  link # 1
2024-06-25 09:22:07.156 [main] INFO  org.matsim.core.network.NetworkImpl -  link # 4
2024-06-25 09:22:07.157 [main] INFO  org.matsim.core.network.NetworkImpl -  link # 16
2024-06-25 09:22:07.158 [main] INFO  org.matsim.core.network.NetworkImpl -  link # 64
2024-06-25 09:22:07.162 [main] INFO  org.matsim.core.network.NetworkImpl -  link # 256
2024-06-25 09:22:07.168 [main] INFO  org.matsim.core.network.NetworkImpl -  link # 1024
2024-06-25 09:22:07.210 [main] INFO  org.matsim.core.network.NetworkImpl -  link # 4096
2024-06-25 09:22:07.326 [main] INFO  org.matsim.core.network.NetworkImpl -  link # 16384
2024-06-25 09:22:07.372 [main] INFO  hagrid.demand.NetworkProcessor - Car mode network filtering completed.
2024-06-25 09:22:07.373 [main] INFO  hagrid.demand.NetworkProcessor - Creating parcel service network based on custom criteria...
2024-06-25 09:22:07.373 [main] INFO  org.matsim.core.config.Config - setting context to [file:/C:/Users/bienzeisler/Documents/GitHub/HAGRID/]
2024-06-25 09:22:07.376 [main] INFO  org.matsim.core.network.NetworkImpl -  node # 1
2024-06-25 09:22:07.377 [main] INFO  org.matsim.core.network.NetworkImpl -  node # 4
2024-06-25 09:22:07.377 [main] INFO  org.matsim.core.network.NetworkImpl -  node # 16
2024-06-25 09:22:07.377 [main] INFO  org.matsim.core.network.NetworkImpl -  node # 64
2024-06-25 09:22:07.379 [main] INFO  org.matsim.core.network.NetworkImpl -  node # 256
2024-06-25 09:22:07.379 [main] INFO  org.matsim.core.network.NetworkImpl -  node # 1024
2024-06-25 09:22:07.381 [main] INFO  org.matsim.core.network.NetworkImpl -  node # 4096
2024-06-25 09:22:07.383 [main] INFO  hagrid.demand.NetworkProcessor - Total number of links in the carFilteredNetwork: 19063
2024-06-25 09:22:07.384 [main] INFO  org.matsim.core.network.NetworkImpl -  link # 1
2024-06-25 09:22:07.384 [main] INFO  org.matsim.core.network.NetworkImpl -  link # 4
2024-06-25 09:22:07.385 [main] INFO  org.matsim.core.network.NetworkImpl -  link # 16
2024-06-25 09:22:07.385 [main] INFO  org.matsim.core.network.NetworkImpl -  link # 64
2024-06-25 09:22:07.392 [main] INFO  org.matsim.core.network.NetworkImpl -  link # 256
2024-06-25 09:22:07.401 [main] INFO  org.matsim.core.network.NetworkImpl -  link # 1024
2024-06-25 09:22:07.409 [main] INFO  org.matsim.core.network.NetworkImpl -  link # 4096
2024-06-25 09:22:07.432 [main] INFO  org.matsim.core.network.NetworkImpl -  link # 16384
2024-06-25 09:22:07.439 [main] INFO  hagrid.demand.NetworkProcessor - Parcel service network created successfully with 18730 links added.
2024-06-25 09:22:07.449 [main] INFO  hagrid.demand.NetworkProcessor - Difference in number of links between carFilteredNetwork and parcel service network: 333
2024-06-25 09:22:07.452 [main] INFO  hagrid.App - Network processing completed. Subnetworks created.
2024-06-25 09:22:07.453 [main] INFO  hagrid.App - Initializing LogisticsDataProcessor...
2024-06-25 09:22:07.455 [main] INFO  hagrid.App - Starting logistics data processing...
2024-06-25 09:22:07.457 [main] INFO  hagrid.demand.LogisticsDataProcessor - Reading logistics data...
2024-06-25 09:22:07.458 [main] INFO  hagrid.demand.LogisticsDataProcessor - Reading geodata of Hanover Region from folder: phd/input/geodata/Region Hannover.shp
2024-06-25 09:22:07.462 [main] INFO  org.matsim.core.utils.gis.GeoFileReader - will try to read from C:\Users\bienzeisler\Documents\GitHub\HAGRID\phd\input\geodata\Region Hannover.shp
2024-06-25 09:22:08.967 [main] INFO  hagrid.demand.LogisticsDataProcessor - Reading hub data from file: phd/input/hubs/KEP-hubs_v3.csv
2024-06-25 09:22:08.969 [main] INFO  hagrid.demand.LogisticsDataProcessor - Reading data from file: phd/input/hubs/KEP-hubs_v3.csv
[...]
2024-06-25 17:40:11.619 [main] INFO  hagrid.demand.SupplyCarrierGenerator - Split Carrier ID = supply_dpd_lehrte_east, Direction = east, Demand = 16000
2024-06-25 17:40:11.620 [main] INFO  hagrid.demand.SupplyCarrierGenerator - Split Carrier ID = supply_dpd_lehrte_south, Direction = south, Demand = 6000
2024-06-25 17:40:11.623 [main] INFO  hagrid.demand.SupplyCarrierGenerator - Split Carrier ID = supply_dpd_lehrte_north, Direction = north, Demand = 16000
2024-06-25 17:40:11.625 [main] INFO  hagrid.demand.SupplyCarrierGenerator - Split Carrier ID = supply_dpd_lehrte_west, Direction = west, Demand = 6244
2024-06-25 17:40:11.630 [main] INFO  hagrid.demand.SupplyCarrierGenerator - Split Carrier ID = supply_gls_laatzen_east, Direction = east, Demand = 1362
2024-06-25 17:40:11.631 [main] INFO  hagrid.demand.SupplyCarrierGenerator - Split Carrier ID = supply_gls_laatzen_south, Direction = south, Demand = 18000
2024-06-25 17:40:11.632 [main] INFO  hagrid.demand.SupplyCarrierGenerator - Split Carrier ID = supply_gls_laatzen_north, Direction = north, Demand = 12000
2024-06-25 17:40:11.635 [main] INFO  hagrid.demand.SupplyCarrierGenerator - Split Carrier ID = supply_gls_laatzen_west, Direction = west, Demand = 4000
2024-06-25 17:40:11.637 [main] INFO  hagrid.demand.SupplyCarrierGenerator - Split Carrier ID = supply_hermes_langenhagen_east, Direction = east, Demand = 2000
2024-06-25 17:40:11.639 [main] INFO  hagrid.demand.SupplyCarrierGenerator - Split Carrier ID = supply_hermes_langenhagen_south, Direction = south, Demand = 7206
2024-06-25 17:40:11.639 [main] INFO  hagrid.demand.SupplyCarrierGenerator - Split Carrier ID = supply_hermes_langenhagen_north, Direction = north, Demand = 8000
2024-06-25 17:40:11.640 [main] INFO  hagrid.demand.SupplyCarrierGenerator - Split Carrier ID = supply_hermes_langenhagen_west, Direction = west, Demand = 8000
2024-06-25 17:40:11.642 [main] INFO  hagrid.demand.SupplyCarrierGenerator - Split Carrier ID = supply_amazon_garbsen_east, Direction = east, Demand = 2000
2024-06-25 17:40:11.646 [main] INFO  hagrid.demand.SupplyCarrierGenerator - Split Carrier ID = supply_amazon_garbsen_south, Direction = south, Demand = 16802
2024-06-25 17:40:11.648 [main] INFO  hagrid.demand.SupplyCarrierGenerator - Split Carrier ID = supply_amazon_garbsen_north, Direction = north, Demand = 10000
2024-06-25 17:40:11.648 [main] INFO  hagrid.demand.SupplyCarrierGenerator - Split Carrier ID = supply_amazon_garbsen_west, Direction = west, Demand = 8000
2024-06-25 17:40:11.651 [main] INFO  hagrid.demand.SupplyCarrierGenerator - Split Carrier ID = supply_fedex_hannover_east, Direction = east, Demand = 8450
2024-06-25 17:40:11.652 [main] INFO  hagrid.demand.SupplyCarrierGenerator - Split Carrier ID = supply_fedex_hannover_south, Direction = south, Demand = 6000
2024-06-25 17:40:11.653 [main] INFO  hagrid.demand.SupplyCarrierGenerator - Split Carrier ID = supply_fedex_hannover_north, Direction = north, Demand = 8000
2024-06-25 17:40:11.655 [main] INFO  hagrid.demand.SupplyCarrierGenerator - Split Carrier ID = supply_fedex_hannover_west, Direction = west, Demand = 4000
2024-06-25 17:40:11.656 [main] INFO  hagrid.demand.SupplyCarrierGenerator - Split Carrier ID = supply_ups_hannover_east, Direction = east, Demand = 16982
2024-06-25 17:40:11.657 [main] INFO  hagrid.demand.SupplyCarrierGenerator - Split Carrier ID = supply_ups_hannover_south, Direction = south, Demand = 14000
2024-06-25 17:40:11.658 [main] INFO  hagrid.demand.SupplyCarrierGenerator - Split Carrier ID = supply_ups_hannover_north, Direction = north, Demand = 14000
2024-06-25 17:40:11.659 [main] INFO  hagrid.demand.SupplyCarrierGenerator - Split Carrier ID = supply_ups_hannover_west, Direction = west, Demand = 8000
2024-06-25 17:40:11.661 [main] INFO  hagrid.demand.SupplyCarrierGenerator - Split Carrier ID = supply_dp_dhl_burgdorf_east, Direction = east, Demand = 3892
2024-06-25 17:40:11.662 [main] INFO  hagrid.demand.SupplyCarrierGenerator - Split Carrier ID = supply_dp_dhl_burgdorf_north, Direction = north, Demand = 2000
2024-06-25 17:40:11.663 [main] INFO  hagrid.demand.SupplyCarrierGenerator - Split Carrier ID = supply_dp_dhl_burgdorf_west, Direction = west, Demand = 2000
2024-06-25 17:40:11.666 [main] INFO  hagrid.demand.SupplyCarrierGenerator - Split Carrier ID = supply_dp_dhl_springe_south, Direction = south, Demand = 4000
2024-06-25 17:40:11.667 [main] INFO  hagrid.demand.SupplyCarrierGenerator - Split Carrier ID = supply_dp_dhl_springe_north, Direction = north, Demand = 172
2024-06-25 17:40:11.672 [main] INFO  hagrid.demand.SupplyCarrierGenerator - Split Carrier ID = supply_dp_dhl_garbsen_east, Direction = east, Demand = 4000
2024-06-25 17:40:11.674 [main] INFO  hagrid.demand.SupplyCarrierGenerator - Split Carrier ID = supply_dp_dhl_garbsen_south, Direction = south, Demand = 940
2024-06-25 17:40:11.676 [main] INFO  hagrid.demand.SupplyCarrierGenerator - Split Carrier ID = supply_dp_dhl_garbsen_west, Direction = west, Demand = 2000
2024-06-25 17:40:11.678 [main] INFO  hagrid.demand.SupplyCarrierGenerator - Split Carrier ID = supply_dp_dhl_seelze_east, Direction = east, Demand = 6000
2024-06-25 17:40:11.680 [main] INFO  hagrid.demand.SupplyCarrierGenerator - Split Carrier ID = supply_dp_dhl_seelze_north, Direction = north, Demand = 3042
2024-06-25 17:40:11.684 [main] INFO  hagrid.demand.SupplyCarrierGenerator - Split Carrier ID = supply_dp_dhl_wunstorf_east, Direction = east, Demand = 4600
2024-06-25 17:40:11.685 [main] INFO  hagrid.demand.SupplyCarrierGenerator - Split Carrier ID = supply_dp_dhl_wunstorf_south, Direction = south, Demand = 2000
2024-06-25 17:40:11.686 [main] INFO  hagrid.demand.SupplyCarrierGenerator - Split Carrier ID = supply_dp_dhl_wunstorf_west, Direction = west, Demand = 2000
2024-06-25 17:40:11.687 [main] INFO  hagrid.demand.SupplyCarrierGenerator - Split Carrier ID = supply_dp_dhl_wedemark_south, Direction = south, Demand = 2000
2024-06-25 17:40:11.688 [main] INFO  hagrid.demand.SupplyCarrierGenerator - Split Carrier ID = supply_dp_dhl_wedemark_north, Direction = north, Demand = 5384
2024-06-25 17:40:11.689 [main] INFO  hagrid.demand.SupplyCarrierGenerator - Split Carrier ID = supply_dp_dhl_wedemark_west, Direction = west, Demand = 8000
2024-06-25 17:40:11.689 [main] INFO  hagrid.demand.SupplyCarrierGenerator - Split Carrier ID = supply_dp_dhl_uetze_south, Direction = south, Demand = 936
2024-06-25 17:40:11.690 [main] INFO  hagrid.demand.SupplyCarrierGenerator - Split Carrier ID = supply_dp_dhl_uetze_north, Direction = north, Demand = 2000
2024-06-25 17:40:11.691 [main] INFO  hagrid.demand.SupplyCarrierGenerator - Split Carrier ID = supply_dp_dhl_lehrte_east, Direction = east, Demand = 2000
2024-06-25 17:40:11.694 [main] INFO  hagrid.demand.SupplyCarrierGenerator - Split Carrier ID = supply_dp_dhl_lehrte_south, Direction = south, Demand = 314
2024-06-25 17:40:11.695 [main] INFO  hagrid.demand.SupplyCarrierGenerator - Split Carrier ID = supply_dp_dhl_lehrte_west, Direction = west, Demand = 4000
2024-06-25 17:40:11.698 [main] INFO  hagrid.demand.SupplyCarrierGenerator - Split Carrier ID = supply_dp_dhl_neustadt_am_ruebenberge_east, Direction = east, Demand = 382
2024-06-25 17:40:11.701 [main] INFO  hagrid.demand.SupplyCarrierGenerator - Split Carrier ID = supply_dp_dhl_neustadt_am_ruebenberge_south, Direction = south, Demand = 2000
2024-06-25 17:40:11.707 [main] INFO  hagrid.demand.SupplyCarrierGenerator - Split Carrier ID = supply_dp_dhl_neustadt_am_ruebenberge_north, Direction = north, Demand = 4000
2024-06-25 17:40:11.710 [main] INFO  hagrid.demand.SupplyCarrierGenerator - Split Carrier ID = supply_dp_dhl_wennigsen_east, Direction = east, Demand = 4000
2024-06-25 17:40:11.712 [main] INFO  hagrid.demand.SupplyCarrierGenerator - Split Carrier ID = supply_dp_dhl_wennigsen_north, Direction = north, Demand = 2000
2024-06-25 17:40:11.713 [main] INFO  hagrid.demand.SupplyCarrierGenerator - Split Carrier ID = supply_dp_dhl_wennigsen_west, Direction = west, Demand = 972
2024-06-25 17:40:11.721 [main] INFO  hagrid.demand.SupplyCarrierGenerator - Split Carrier ID = supply_dp_dhl_sehnde_east, Direction = east, Demand = 1710
2024-06-25 17:40:11.724 [main] INFO  hagrid.demand.SupplyCarrierGenerator - Starting validation of direct supply carriers...
2024-06-25 17:40:11.733 [main] INFO  hagrid.demand.SupplyCarrierGenerator - Hub dpd_lehrte: Assigned Demand = 44244, Carrier Demand = 44244
2024-06-25 17:40:11.739 [main] INFO  hagrid.demand.SupplyCarrierGenerator - Hub gls_laatzen: Assigned Demand = 35362, Carrier Demand = 35362
2024-06-25 17:40:11.748 [main] INFO  hagrid.demand.SupplyCarrierGenerator - Hub hermes_langenhagen: Assigned Demand = 25206, Carrier Demand = 25206
2024-06-25 17:40:11.760 [main] INFO  hagrid.demand.SupplyCarrierGenerator - Hub amazon_garbsen: Assigned Demand = 36802, Carrier Demand = 36802
2024-06-25 17:40:11.781 [main] INFO  hagrid.demand.SupplyCarrierGenerator - Hub fedex_hannover: Assigned Demand = 26450, Carrier Demand = 26450
2024-06-25 17:40:11.803 [main] INFO  hagrid.demand.SupplyCarrierGenerator - Hub ups_hannover: Assigned Demand = 52982, Carrier Demand = 52982
2024-06-25 17:40:11.804 [main] INFO  hagrid.demand.SupplyCarrierGenerator - Validation successful: Total assigned direct supply demand matches total direct supply carrier demand.
2024-06-25 17:40:11.820 [main] INFO  hagrid.demand.SupplyCarrierGenerator - Validation successful: Total DHL assigned supply demand matches total carrier demand from and to Anderten.
2024-06-25 17:40:11.822 [main] INFO  hagrid.demand.SupplyCarrierGenerator - Total DHL provider assigned supply demand: 98580
2024-06-25 17:40:11.825 [main] INFO  hagrid.demand.SupplyCarrierGenerator - Carrier demand to Anderten: 98580
2024-06-25 17:40:11.827 [main] INFO  hagrid.demand.SupplyCarrierGenerator - Total DHL assigned supply demand excluding Anderten: 82904
2024-06-25 17:40:11.837 [main] INFO  hagrid.demand.SupplyCarrierGenerator - Carrier demand from Anderten: 82904
2024-06-25 17:40:11.853 [main] INFO  hagrid.demand.SupplyCarrierGenerator - Validation successful: Total demand for split carriers of supply_to_dhl_anderten matches original demand. Original Demand: 98580, Split Demand: 98580
2024-06-25 17:40:11.859 [main] INFO  hagrid.demand.SupplyCarrierGenerator - Validation successful: Total demand for split carriers of supply_dpd_lehrte matches original demand. Original Demand: 44244, Split Demand: 44244
2024-06-25 17:40:11.862 [main] INFO  hagrid.demand.SupplyCarrierGenerator - Validation successful: Total demand for split carriers of supply_gls_laatzen matches original demand. Original Demand: 35362, Split Demand: 35362
2024-06-25 17:40:11.865 [main] INFO  hagrid.demand.SupplyCarrierGenerator - Validation successful: Total demand for split carriers of supply_hermes_langenhagen matches original demand. Original Demand: 25206, Split Demand: 25206
2024-06-25 17:40:11.868 [main] INFO  hagrid.demand.SupplyCarrierGenerator - Validation successful: Total demand for split carriers of supply_amazon_garbsen matches original demand. Original Demand: 36802, Split Demand: 36802
2024-06-25 17:40:11.872 [main] INFO  hagrid.demand.SupplyCarrierGenerator - Validation successful: Total demand for split carriers of supply_fedex_hannover matches original demand. Original Demand: 26450, Split Demand: 26450
2024-06-25 17:40:11.877 [main] INFO  hagrid.demand.SupplyCarrierGenerator - Validation successful: Total demand for split carriers of supply_ups_hannover matches original demand. Original Demand: 52982, Split Demand: 52982
2024-06-25 17:40:11.884 [main] INFO  hagrid.demand.SupplyCarrierGenerator - Validation successful: Total demand for split carriers of supply_dp_dhl_burgdorf matches original demand. Original Demand: 7892, Split Demand: 7892
2024-06-25 17:40:11.886 [main] INFO  hagrid.demand.SupplyCarrierGenerator - Validation successful: Total demand for split carriers of supply_dp_dhl_springe matches original demand. Original Demand: 4172, Split Demand: 4172
2024-06-25 17:40:11.887 [main] INFO  hagrid.demand.SupplyCarrierGenerator - Validation successful: Total demand for split carriers of supply_dp_dhl_garbsen matches original demand. Original Demand: 6940, Split Demand: 6940
2024-06-25 17:40:11.890 [main] INFO  hagrid.demand.SupplyCarrierGenerator - Validation successful: Total demand for split carriers of supply_dp_dhl_seelze matches original demand. Original Demand: 9042, Split Demand: 9042
2024-06-25 17:40:11.894 [main] INFO  hagrid.demand.SupplyCarrierGenerator - Validation successful: Total demand for split carriers of supply_dp_dhl_wunstorf matches original demand. Original Demand: 8600, Split Demand: 8600
2024-06-25 17:40:11.896 [main] INFO  hagrid.demand.SupplyCarrierGenerator - Validation successful: Total demand for split carriers of supply_dp_dhl_wedemark matches original demand. Original Demand: 15384, Split Demand: 15384
2024-06-25 17:40:11.900 [main] INFO  hagrid.demand.SupplyCarrierGenerator - Validation successful: Total demand for split carriers of supply_dp_dhl_uetze matches original demand. Original Demand: 2936, Split Demand: 2936
2024-06-25 17:40:11.903 [main] INFO  hagrid.demand.SupplyCarrierGenerator - Validation successful: Total demand for split carriers of supply_dp_dhl_lehrte matches original demand. Original Demand: 6314, Split Demand: 6314
2024-06-25 17:40:11.905 [main] INFO  hagrid.demand.SupplyCarrierGenerator - Validation successful: Total demand for split carriers of supply_dp_dhl_neustadt_am_ruebenberge matches original demand. Original Demand: 6382, Split Demand: 6382
2024-06-25 17:40:11.916 [main] INFO  hagrid.demand.SupplyCarrierGenerator - Validation successful: Total demand for split carriers of supply_dp_dhl_wennigsen matches original demand. Original Demand: 6972, Split Demand: 6972
2024-06-25 17:40:11.924 [main] INFO  hagrid.demand.SupplyCarrierGenerator - Validation successful: Total demand for split carriers of supply_dp_dhl_sehnde matches original demand. Original Demand: 1710, Split Demand: 1710
2024-06-25 17:40:11.937 [main] INFO  org.matsim.freight.carriers.CarrierPlanXmlWriterV2_1 - write carrier plans
2024-06-25 17:40:11.962 [main] INFO  org.matsim.freight.carriers.CarrierPlanXmlWriterV2_1 - done
2024-06-25 17:40:11.969 [main] INFO  org.matsim.freight.carriers.CarrierPlanXmlWriterV2_1 - write carrier plans
2024-06-25 17:40:11.984 [main] INFO  org.matsim.freight.carriers.CarrierPlanXmlWriterV2_1 - done
2024-06-25 17:40:11.987 [main] INFO  hagrid.demand.SupplyCarrierGenerator - Supply carrier generation completed successfully.
2024-06-25 17:40:11.989 [main] INFO  hagrid.App - Supply carrier generation completed.
2024-06-25 17:40:11.989 [main] INFO  hagrid.App - Application finished.
2024-06-25 17:50:18.059 [main] INFO  hagrid.App - Starting application...
2024-06-25 17:50:18.468 [main] INFO  org.matsim.core.utils.io.IOUtils - Resolved phd/input/config.xml to phd\input\config.xml
2024-06-25 17:50:18.477 [main] INFO  org.matsim.core.config.Config - setting context to [file:/C:/Users/bienzeisler/Documents/GitHub/HAGRID/]
2024-06-25 17:50:18.740 [main] INFO  org.hibernate.validator.internal.util.Version - HV000001: Hibernate Validator 7.0.1.Final
2024-06-25 17:50:19.329 [main] INFO  org.matsim.core.utils.io.MatsimXmlParser - starting to parse xml from url file:/C:/Users/bienzeisler/Documents/GitHub/HAGRID/phd/input/config.xml ...
2024-06-25 17:50:19.461 [main] INFO  org.matsim.core.config.ConfigReader - using config_v2-reader
2024-06-25 17:50:19.463 [main] INFO  org.matsim.core.utils.io.MatsimXmlParser - Trying to load http://www.matsim.org/files/dtd/config_v2.dtd. In some cases (e.g. network interface up but no connection), this may take a bit.
2024-06-25 17:50:19.615 [main] INFO  org.matsim.core.config.groups.GlobalConfigGroup - setting number of threads to: 2
2024-06-25 17:50:19.673 [main] WARN  org.matsim.core.config.groups.ScoringConfigGroup - Setting pathSizeLogitBeta different from zero is experimental.  KN, Sep'08
2024-06-25 17:50:19.715 [main] INFO  org.matsim.core.config.groups.ScoringConfigGroup - scoring parameters for subpopulation null were just replaced.
2024-06-25 17:50:19.726 [main] WARN  org.matsim.core.config.groups.RoutingConfigGroup - The first mode routing (= teleported mode) params that are explicitly defined clear the default mode routing (= teleported mode) params.  If you want to avoid this 
2024-06-25 17:50:19.727 [main] WARN  org.matsim.core.config.groups.RoutingConfigGroup -     warning, use clearTeleportedModeParams(true) in code, and "clearDefaultTeleportedModeParams"=true in xml config.
2024-06-25 17:50:19.769 [main] INFO  org.matsim.core.config.Config - setting context to [file:/C:/Users/bienzeisler/Documents/GitHub/HAGRID/phd/input/config.xml]
2024-06-25 17:50:19.849 [main] INFO  org.matsim.core.scenario.ScenarioLoaderImpl - no facilities file set in config, therefore not loading any facilities.  This is not a problem except if you are using facilities
2024-06-25 17:50:19.850 [main] INFO  org.matsim.core.scenario.ScenarioLoaderImpl - no facility-attributes file set in config, not loading any facility attributes
2024-06-25 17:50:19.851 [main] INFO  org.matsim.core.scenario.ScenarioLoaderImpl - no population file set in config, not able to load population
2024-06-25 17:50:19.852 [main] INFO  org.matsim.core.scenario.ScenarioLoaderImpl - no person-attributes file set in config, not loading any person attributes
2024-06-25 17:50:19.854 [main] INFO  org.matsim.core.scenario.ScenarioLoaderImpl - no households file set in config, not loading households
2024-06-25 17:50:19.855 [main] INFO  org.matsim.core.scenario.ScenarioLoaderImpl - no transit schedule file set in config, not loading any transit schedule
2024-06-25 17:50:19.856 [main] INFO  org.matsim.core.scenario.ScenarioLoaderImpl - no transit vehicles file set in config, not loading any transit vehicles
2024-06-25 17:50:20.224 [main] INFO  hagrid.App - Initializing NetworkProcessor...
2024-06-25 17:50:20.253 [main] INFO  hagrid.App - Starting network processing...
2024-06-25 17:50:20.255 [main] INFO  hagrid.demand.NetworkProcessor - Starting network processing...
2024-06-25 17:50:20.280 [main] INFO  hagrid.demand.NetworkProcessor - Reading the network file from path: U:/USEfUL-XT/matsim-hanover/01_MATSimModelCreator/Sim-Input/car_cargobike_network_zones_MH_V3.xml.gz
2024-06-25 17:50:20.286 [main] INFO  org.matsim.core.utils.io.MatsimXmlParser - starting to parse xml from file U:/USEfUL-XT/matsim-hanover/01_MATSimModelCreator/Sim-Input/car_cargobike_network_zones_MH_V3.xml.gz ...
2024-06-25 17:50:20.290 [main] INFO  org.matsim.core.utils.io.IOUtils - Resolved U:/USEfUL-XT/matsim-hanover/01_MATSimModelCreator/Sim-Input/car_cargobike_network_zones_MH_V3.xml.gz to U:\USEfUL-XT\matsim-hanover\01_MATSimModelCreator\Sim-Input\car_cargobike_network_zones_MH_V3.xml.gz
2024-06-25 17:50:20.697 [main] INFO  org.matsim.core.network.io.MatsimNetworkReader - using network_v2-reader.
2024-06-25 17:50:20.698 [main] INFO  org.matsim.core.utils.io.MatsimXmlParser - Trying to load http://www.matsim.org/files/dtd/network_v2.dtd. In some cases (e.g. network interface up but no connection), this may take a bit.
2024-06-25 17:50:20.747 [main] INFO  org.matsim.core.network.NetworkImpl -  node # 1
2024-06-25 17:50:20.749 [main] INFO  org.matsim.core.network.NetworkImpl -  node # 4
2024-06-25 17:50:20.752 [main] INFO  org.matsim.core.network.NetworkImpl -  node # 16
2024-06-25 17:50:20.759 [main] INFO  org.matsim.core.network.NetworkImpl -  node # 64
2024-06-25 17:50:20.788 [main] INFO  org.matsim.core.network.NetworkImpl -  node # 256
2024-06-25 17:50:20.859 [main] INFO  org.matsim.core.network.NetworkImpl -  node # 1024
2024-06-25 17:50:20.969 [main] INFO  org.matsim.core.network.NetworkImpl -  node # 4096
2024-06-25 17:50:21.409 [main] INFO  org.matsim.core.network.NetworkImpl -  node # 16384
2024-06-25 17:50:22.155 [main] INFO  org.matsim.core.network.NetworkImpl -  node # 65536
