2024-07-04 09:23:14.521 [main] INFO  hagrid.App - Starting application...
2024-07-04 09:23:14.671 [main] INFO  org.matsim.core.utils.io.IOUtils - Resolved phd/input/config.xml to phd\input\config.xml
2024-07-04 09:23:14.688 [main] INFO  org.matsim.core.config.Config - setting context to [file:/C:/Users/bienzeisler/Documents/GitHub/HAGRID/]
2024-07-04 09:23:14.788 [main] INFO  org.hibernate.validator.internal.util.Version - HV000001: Hibernate Validator 7.0.1.Final
2024-07-04 09:23:14.988 [main] INFO  org.matsim.core.utils.io.MatsimXmlParser - starting to parse xml from url file:/C:/Users/bienzeisler/Documents/GitHub/HAGRID/phd/input/config.xml ...
2024-07-04 09:23:15.039 [main] INFO  org.matsim.core.config.ConfigReader - using config_v2-reader
2024-07-04 09:23:15.039 [main] INFO  org.matsim.core.utils.io.MatsimXmlParser - Trying to load http://www.matsim.org/files/dtd/config_v2.dtd. In some cases (e.g. network interface up but no connection), this may take a bit.
2024-07-04 09:23:15.250 [main] INFO  org.matsim.core.config.groups.GlobalConfigGroup - setting number of threads to: 2
2024-07-04 09:23:15.276 [main] WARN  org.matsim.core.config.groups.ScoringConfigGroup - Setting pathSizeLogitBeta different from zero is experimental.  KN, Sep'08
2024-07-04 09:23:15.289 [main] INFO  org.matsim.core.config.groups.ScoringConfigGroup - scoring parameters for subpopulation null were just replaced.
2024-07-04 09:23:15.294 [main] WARN  org.matsim.core.config.groups.RoutingConfigGroup - The first mode routing (= teleported mode) params that are explicitly defined clear the default mode routing (= teleported mode) params.  If you want to avoid this 
2024-07-04 09:23:15.294 [main] WARN  org.matsim.core.config.groups.RoutingConfigGroup -     warning, use clearTeleportedModeParams(true) in code, and "clearDefaultTeleportedModeParams"=true in xml config.
2024-07-04 09:23:15.309 [main] INFO  org.matsim.core.config.Config - setting context to [file:/C:/Users/bienzeisler/Documents/GitHub/HAGRID/phd/input/config.xml]
2024-07-04 09:23:15.345 [main] INFO  org.matsim.core.scenario.ScenarioLoaderImpl - no facilities file set in config, therefore not loading any facilities.  This is not a problem except if you are using facilities
2024-07-04 09:23:15.345 [main] INFO  org.matsim.core.scenario.ScenarioLoaderImpl - no facility-attributes file set in config, not loading any facility attributes
2024-07-04 09:23:15.346 [main] INFO  org.matsim.core.scenario.ScenarioLoaderImpl - no population file set in config, not able to load population
2024-07-04 09:23:15.346 [main] INFO  org.matsim.core.scenario.ScenarioLoaderImpl - no person-attributes file set in config, not loading any person attributes
2024-07-04 09:23:15.347 [main] INFO  org.matsim.core.scenario.ScenarioLoaderImpl - no households file set in config, not loading households
2024-07-04 09:23:15.347 [main] INFO  org.matsim.core.scenario.ScenarioLoaderImpl - no transit schedule file set in config, not loading any transit schedule
2024-07-04 09:23:15.347 [main] INFO  org.matsim.core.scenario.ScenarioLoaderImpl - no transit vehicles file set in config, not loading any transit vehicles
2024-07-04 09:23:15.494 [main] INFO  hagrid.App - Initializing NetworkProcessor...
2024-07-04 09:23:15.500 [main] INFO  hagrid.App - Starting network processing...
2024-07-04 09:23:15.502 [main] INFO  hagrid.demand.NetworkProcessor - Starting network processing...
2024-07-04 09:23:15.515 [main] INFO  hagrid.demand.NetworkProcessor - Reading the network file from path: U:/USEfUL-XT/matsim-hanover/01_MATSimModelCreator/Sim-Input/car_cargobike_network_zones_MH_V3.xml.gz
2024-07-04 09:23:15.517 [main] INFO  org.matsim.core.utils.io.MatsimXmlParser - starting to parse xml from file U:/USEfUL-XT/matsim-hanover/01_MATSimModelCreator/Sim-Input/car_cargobike_network_zones_MH_V3.xml.gz ...
2024-07-04 09:23:15.521 [main] INFO  org.matsim.core.utils.io.IOUtils - Resolved U:/USEfUL-XT/matsim-hanover/01_MATSimModelCreator/Sim-Input/car_cargobike_network_zones_MH_V3.xml.gz to U:\USEfUL-XT\matsim-hanover\01_MATSimModelCreator\Sim-Input\car_cargobike_network_zones_MH_V3.xml.gz
2024-07-04 09:23:15.728 [main] INFO  org.matsim.core.network.io.MatsimNetworkReader - using network_v2-reader.
2024-07-04 09:23:15.728 [main] INFO  org.matsim.core.utils.io.MatsimXmlParser - Trying to load http://www.matsim.org/files/dtd/network_v2.dtd. In some cases (e.g. network interface up but no connection), this may take a bit.
2024-07-04 09:23:15.769 [main] INFO  org.matsim.core.network.NetworkImpl -  node # 1
2024-07-04 09:23:15.770 [main] INFO  org.matsim.core.network.NetworkImpl -  node # 4
2024-07-04 09:23:15.770 [main] INFO  org.matsim.core.network.NetworkImpl -  node # 16
2024-07-04 09:23:15.774 [main] INFO  org.matsim.core.network.NetworkImpl -  node # 64
2024-07-04 09:23:15.785 [main] INFO  org.matsim.core.network.NetworkImpl -  node # 256
2024-07-04 09:23:15.808 [main] INFO  org.matsim.core.network.NetworkImpl -  node # 1024
2024-07-04 09:23:15.859 [main] INFO  org.matsim.core.network.NetworkImpl -  node # 4096
2024-07-04 09:23:15.990 [main] INFO  org.matsim.core.network.NetworkImpl -  node # 16384
2024-07-04 09:23:16.182 [main] INFO  org.matsim.core.network.NetworkImpl -  node # 65536
2024-07-04 09:23:16.771 [main] INFO  org.matsim.core.network.NetworkImpl -  node # 262144
2024-07-04 09:23:18.638 [main] INFO  org.matsim.core.network.NetworkImpl -  link # 1
2024-07-04 09:23:18.638 [main] INFO  org.matsim.core.network.NetworkImpl -  link # 4
2024-07-04 09:23:18.644 [main] INFO  org.matsim.core.network.NetworkImpl -  link # 16
2024-07-04 09:23:18.658 [main] INFO  org.matsim.core.network.NetworkImpl -  link # 64
2024-07-04 09:23:18.691 [main] INFO  org.matsim.core.network.NetworkImpl -  link # 256
2024-07-04 09:23:18.743 [main] INFO  org.matsim.core.network.NetworkImpl -  link # 1024
2024-07-04 09:23:18.787 [main] WARN  org.matsim.api.core.v01.network.Link - length=0.0 of link id 1003638 may cause problems
2024-07-04 09:23:18.788 [main] WARN  org.matsim.api.core.v01.network.Link -  Future occurences of this logging statement are suppressed.
2024-07-04 09:23:18.857 [main] INFO  org.matsim.core.network.NetworkImpl -  link # 4096
2024-07-04 09:23:19.069 [main] INFO  org.matsim.core.network.NetworkImpl -  link # 16384
2024-07-04 09:23:19.695 [main] INFO  org.matsim.core.network.NetworkImpl -  link # 65536
2024-07-04 09:23:21.738 [main] INFO  org.matsim.core.network.NetworkImpl -  link # 262144
2024-07-04 09:23:29.975 [main] INFO  org.matsim.core.network.NetworkImpl -  link # 1048576
2024-07-04 09:23:43.488 [main] INFO  hagrid.demand.NetworkProcessor - Adjusting link lengths and free speeds...
2024-07-04 09:23:43.638 [main] INFO  hagrid.demand.NetworkProcessor - Link adjustments completed.
2024-07-04 09:23:43.638 [main] INFO  hagrid.demand.NetworkProcessor - Filtering network to include only car mode links...
2024-07-04 09:23:43.647 [main] INFO  org.matsim.core.config.Config - setting context to [file:/C:/Users/bienzeisler/Documents/GitHub/HAGRID/]
2024-07-04 09:23:43.662 [main] INFO  org.matsim.core.network.NetworkImpl -  node # 1
2024-07-04 09:23:43.663 [main] INFO  org.matsim.core.network.NetworkImpl -  node # 4
2024-07-04 09:23:43.663 [main] INFO  org.matsim.core.network.NetworkImpl -  node # 16
2024-07-04 09:23:43.664 [main] INFO  org.matsim.core.network.NetworkImpl -  node # 64
2024-07-04 09:23:43.665 [main] INFO  org.matsim.core.network.NetworkImpl -  node # 256
2024-07-04 09:23:43.666 [main] INFO  org.matsim.core.network.NetworkImpl -  node # 1024
2024-07-04 09:23:43.668 [main] INFO  org.matsim.core.network.NetworkImpl -  node # 4096
2024-07-04 09:23:43.673 [main] INFO  org.matsim.core.network.NetworkImpl -  node # 16384
2024-07-04 09:23:43.691 [main] INFO  org.matsim.core.network.NetworkImpl -  node # 65536
2024-07-04 09:23:43.719 [main] INFO  org.matsim.core.network.NetworkImpl -  node # 262144
2024-07-04 09:23:43.789 [main] INFO  org.matsim.core.network.NetworkImpl -  link # 1
2024-07-04 09:23:43.789 [main] INFO  org.matsim.core.network.NetworkImpl -  link # 4
2024-07-04 09:23:43.791 [main] INFO  org.matsim.core.network.NetworkImpl -  link # 16
2024-07-04 09:23:43.792 [main] INFO  org.matsim.core.network.NetworkImpl -  link # 64
2024-07-04 09:23:43.792 [main] INFO  org.matsim.core.network.NetworkImpl -  link # 256
2024-07-04 09:23:43.801 [main] INFO  org.matsim.core.network.NetworkImpl -  link # 1024
2024-07-04 09:23:43.812 [main] INFO  org.matsim.core.network.NetworkImpl -  link # 4096
2024-07-04 09:23:43.849 [main] INFO  org.matsim.core.network.NetworkImpl -  link # 16384
2024-07-04 09:23:43.955 [main] INFO  org.matsim.core.network.NetworkImpl -  link # 65536
2024-07-04 09:23:44.233 [main] INFO  org.matsim.core.network.NetworkImpl -  link # 262144
2024-07-04 09:23:45.657 [main] INFO  org.matsim.core.network.NetworkImpl -  link # 1048576
2024-07-04 09:23:48.093 [main] INFO  hagrid.demand.NetworkProcessor - Car mode network filtering completed.
2024-07-04 09:23:48.094 [main] INFO  hagrid.demand.NetworkProcessor - Creating parcel service network based on custom criteria...
2024-07-04 09:23:48.094 [main] INFO  org.matsim.core.config.Config - setting context to [file:/C:/Users/bienzeisler/Documents/GitHub/HAGRID/]
2024-07-04 09:23:48.107 [main] INFO  org.matsim.core.network.NetworkImpl -  node # 1
2024-07-04 09:23:48.107 [main] INFO  org.matsim.core.network.NetworkImpl -  node # 4
2024-07-04 09:23:48.108 [main] INFO  org.matsim.core.network.NetworkImpl -  node # 16
2024-07-04 09:23:48.109 [main] INFO  org.matsim.core.network.NetworkImpl -  node # 64
2024-07-04 09:23:48.109 [main] INFO  org.matsim.core.network.NetworkImpl -  node # 256
2024-07-04 09:23:48.111 [main] INFO  org.matsim.core.network.NetworkImpl -  node # 1024
2024-07-04 09:23:48.112 [main] INFO  org.matsim.core.network.NetworkImpl -  node # 4096
2024-07-04 09:23:48.118 [main] INFO  org.matsim.core.network.NetworkImpl -  node # 16384
2024-07-04 09:23:48.126 [main] INFO  org.matsim.core.network.NetworkImpl -  node # 65536
2024-07-04 09:23:48.153 [main] INFO  org.matsim.core.network.NetworkImpl -  node # 262144
2024-07-04 09:23:48.244 [main] INFO  hagrid.demand.NetworkProcessor - Total number of links in the carFilteredNetwork: 2094861
2024-07-04 09:23:48.245 [main] INFO  org.matsim.core.network.NetworkImpl -  link # 1
2024-07-04 09:23:48.245 [main] INFO  org.matsim.core.network.NetworkImpl -  link # 4
2024-07-04 09:23:48.245 [main] INFO  org.matsim.core.network.NetworkImpl -  link # 16
2024-07-04 09:23:48.247 [main] INFO  org.matsim.core.network.NetworkImpl -  link # 64
2024-07-04 09:23:48.248 [main] INFO  org.matsim.core.network.NetworkImpl -  link # 256
2024-07-04 09:23:48.250 [main] INFO  org.matsim.core.network.NetworkImpl -  link # 1024
2024-07-04 09:23:48.254 [main] INFO  org.matsim.core.network.NetworkImpl -  link # 4096
2024-07-04 09:23:48.269 [main] INFO  org.matsim.core.network.NetworkImpl -  link # 16384
2024-07-04 09:23:48.310 [main] INFO  org.matsim.core.network.NetworkImpl -  link # 65536
2024-07-04 09:23:48.417 [main] INFO  org.matsim.core.network.NetworkImpl -  link # 262144
2024-07-04 09:23:48.888 [main] INFO  org.matsim.core.network.NetworkImpl -  link # 1048576
2024-07-04 09:23:49.575 [main] INFO  hagrid.demand.NetworkProcessor - Parcel service network created successfully with 1967655 links added.
2024-07-04 09:23:49.575 [main] INFO  hagrid.demand.NetworkProcessor - Difference in number of links between carFilteredNetwork and parcel service network: 127206
2024-07-04 09:23:49.575 [main] INFO  hagrid.App - Network processing completed. Subnetworks created.
2024-07-04 09:23:49.575 [main] INFO  hagrid.App - Initializing LogisticsDataProcessor...
2024-07-04 09:23:49.589 [main] INFO  hagrid.App - Starting logistics data processing...
2024-07-04 09:23:49.589 [main] INFO  hagrid.demand.LogisticsDataProcessor - Reading logistics data...
2024-07-04 09:23:49.589 [main] INFO  hagrid.demand.LogisticsDataProcessor - Reading geodata of Hanover Region from folder: phd/input/geodata/Region Hannover.shp
2024-07-04 09:23:49.595 [main] INFO  org.matsim.core.utils.gis.GeoFileReader - will try to read from C:\Users\bienzeisler\Documents\GitHub\HAGRID\phd\input\geodata\Region Hannover.shp
2024-07-04 09:23:51.347 [main] INFO  hagrid.demand.LogisticsDataProcessor - Reading hub data from file: phd/input/hubs/KEP-hubs_v3.csv
2024-07-04 09:23:51.348 [main] INFO  hagrid.demand.LogisticsDataProcessor - Reading data from file: phd/input/hubs/KEP-hubs_v3.csv
2024-07-04 09:23:51.427 [main] INFO  org.matsim.core.network.NetworkImpl - building LinkQuadTree for nodes: xrange(282281.45131461613,954092.9718280886); yrange(5239566.628775733,6025734.814523158)
2024-07-04 09:23:52.892 [main] INFO  org.matsim.core.network.NetworkImpl - Building LinkQuadTree took 1.534 seconds.
2024-07-04 09:23:52.960 [main] INFO  hagrid.demand.LogisticsDataProcessor - Read 25 entries from file: phd/input/hubs/KEP-hubs_v3.csv
2024-07-04 09:23:52.961 [main] INFO  hagrid.utils.GeoUtils - Original number of hubs: 25
2024-07-04 09:23:52.962 [main] INFO  hagrid.utils.GeoUtils - Filtering hubs by regions: BARSINGHAUSEN, BURGDORF, BURGWEDEL, GARBSEN, GEHRDEN, HANNOVER, HEMMINGEN, ISERNHAGEN, LAATZEN, LANGENHAGEN, LEHRTE, NEUSTADT, PATTENSEN, RONNENBERG, SEELZE, SEHNDE, SPRINGE, UETZE, WEDEMARK, WENNIGSEN, WUNSTORF
2024-07-04 09:23:53.022 [main] INFO  hagrid.utils.GeoUtils - Filtered number of hubs: 21
2024-07-04 09:23:53.023 [main] INFO  hagrid.utils.GeoUtils - Number of hubs removed: 4
2024-07-04 09:23:53.024 [main] INFO  hagrid.demand.LogisticsDataProcessor - Reading parcel locker data from file: phd/input/hubs/standorte_von_dhl.de.csv
2024-07-04 09:23:53.026 [main] INFO  hagrid.demand.LogisticsDataProcessor - Reading data from file: phd/input/hubs/standorte_von_dhl.de.csv
2024-07-04 09:23:55.588 [main] INFO  hagrid.demand.LogisticsDataProcessor - Read 44 entries from file: phd/input/hubs/standorte_von_dhl.de.csv
2024-07-04 09:23:55.588 [main] INFO  hagrid.demand.LogisticsDataProcessor - Reading shipping point data from folder: phd/input/hubs/standorte_von_paket.net/
2024-07-04 09:23:55.602 [main] INFO  hagrid.demand.LogisticsDataProcessor - Reading data from file: phd/input/hubs/standorte_von_paket.net/dhl_paketnet_list.csv
2024-07-04 09:23:56.061 [main] INFO  hagrid.demand.LogisticsDataProcessor - Read 301 entries from file: phd/input/hubs/standorte_von_paket.net/dhl_paketnet_list.csv
2024-07-04 09:23:56.061 [main] INFO  hagrid.demand.LogisticsDataProcessor - Reading data from file: phd/input/hubs/standorte_von_paket.net/dpd_paketnet_list.csv
2024-07-04 09:23:56.189 [main] INFO  hagrid.demand.LogisticsDataProcessor - Read 95 entries from file: phd/input/hubs/standorte_von_paket.net/dpd_paketnet_list.csv
2024-07-04 09:23:56.189 [main] INFO  hagrid.demand.LogisticsDataProcessor - Reading data from file: phd/input/hubs/standorte_von_paket.net/gls_paketnet_list.csv
2024-07-04 09:23:56.307 [main] INFO  hagrid.demand.LogisticsDataProcessor - Read 92 entries from file: phd/input/hubs/standorte_von_paket.net/gls_paketnet_list.csv
2024-07-04 09:23:56.308 [main] INFO  hagrid.demand.LogisticsDataProcessor - Reading data from file: phd/input/hubs/standorte_von_paket.net/hermes_paketnet_list.csv
2024-07-04 09:23:56.500 [main] INFO  hagrid.demand.LogisticsDataProcessor - Read 199 entries from file: phd/input/hubs/standorte_von_paket.net/hermes_paketnet_list.csv
2024-07-04 09:23:56.502 [main] INFO  hagrid.demand.LogisticsDataProcessor - Reading data from file: phd/input/hubs/standorte_von_paket.net/ups_paketnet_list.csv
2024-07-04 09:23:56.556 [main] INFO  hagrid.demand.LogisticsDataProcessor - Read 52 entries from file: phd/input/hubs/standorte_von_paket.net/ups_paketnet_list.csv
2024-07-04 09:23:56.556 [main] INFO  hagrid.utils.GeoUtils - No filtering applied. 'ALL' region specified. Returning all hubs.
2024-07-04 09:23:56.556 [main] INFO  hagrid.utils.GeoUtils - No filtering applied. 'ALL' region specified. Returning all hubs.
2024-07-04 09:23:56.556 [main] INFO  hagrid.demand.LogisticsDataProcessor - Loading carrier vehicle types...
2024-07-04 09:23:56.573 [main] INFO  org.matsim.freight.carriers.CarrierVehicleTypeReader - With early carrier vehicle type file formats, there will be an expected exception in the following.
2024-07-04 09:23:56.579 [main] INFO  org.matsim.core.utils.io.MatsimXmlParser - starting to parse xml from file phd/input/HAGRID_vehicleTypes2.0.xml ...
2024-07-04 09:23:56.580 [main] INFO  org.matsim.core.utils.io.IOUtils - Resolved phd/input/HAGRID_vehicleTypes2.0.xml to phd\input\HAGRID_vehicleTypes2.0.xml
2024-07-04 09:23:56.726 [main] INFO  org.matsim.core.utils.io.MatsimXmlParser - Trying to load http://www.matsim.org/files/dtd/vehicleDefinitions_v2.0.xsd. In some cases (e.g. network interface up but no connection), this may take a bit.
2024-07-04 09:23:56.807 [main] INFO  org.matsim.core.utils.io.MatsimXmlParser - Trying to load http://www.matsim.org/files/dtd/matsimCommon.xsd. In some cases (e.g. network interface up but no connection), this may take a bit.
2024-07-04 09:23:56.847 [main] INFO  org.matsim.core.utils.io.MatsimXmlParser - Trying to load http://www.matsim.org/files/dtd/vehicleDefinitionsEnumTypes.xsd. In some cases (e.g. network interface up but no connection), this may take a bit.
2024-07-04 09:23:56.901 [main] INFO  org.matsim.freight.carriers.CarrierVehicleTypeReader - Using central vehicle parser
2024-07-04 09:23:56.905 [main] INFO  org.matsim.vehicles.MatsimVehicleReader - Found following schemaLocation in vehicle definition file: http://www.matsim.org/files/dtd http://www.matsim.org/files/dtd/vehicleDefinitions_v2.0.xsd
2024-07-04 09:23:56.905 [main] INFO  org.matsim.vehicles.VehicleReaderV2 - Using org.matsim.vehicles.VehicleReaderV2
2024-07-04 09:23:56.940 [main] INFO  hagrid.demand.LogisticsDataProcessor - Logistics data processing completed.
2024-07-04 09:23:56.942 [main] INFO  hagrid.App - Logistics data processing completed.
2024-07-04 09:23:56.943 [main] INFO  hagrid.App - Initializing DemandProcessor...
2024-07-04 09:23:56.944 [main] INFO  hagrid.App - Starting demand data processing...
2024-07-04 09:23:56.945 [main] INFO  hagrid.demand.DemandProcessor - Reading freight demand data from file: T:/bienzeisler/USEfUL-XT/matsim-hanover/01_MATSimModelCreator/vm-hochrechnung_matsim-punkte_epsg25832_mit_plz_v4_b2b.shp
2024-07-04 09:23:56.946 [main] WARN  org.matsim.core.utils.gis.GeoFileReader - Unsafe method! store.dispose() is not called from within this method
2024-07-04 09:23:57.096 [main] INFO  org.matsim.core.utils.gis.GeoFileReader - features to read #46565
2024-07-04 09:23:57.103 [main] INFO  org.matsim.core.utils.misc.Counter - features read #1
2024-07-04 09:23:57.105 [main] INFO  org.matsim.core.utils.misc.Counter - features read #2
2024-07-04 09:23:57.107 [main] INFO  org.matsim.core.utils.misc.Counter - features read #4
2024-07-04 09:23:57.109 [main] INFO  org.matsim.core.utils.misc.Counter - features read #8
2024-07-04 09:23:57.111 [main] INFO  org.matsim.core.utils.misc.Counter - features read #16
2024-07-04 09:23:57.116 [main] INFO  org.matsim.core.utils.misc.Counter - features read #32
2024-07-04 09:23:57.133 [main] INFO  org.matsim.core.utils.misc.Counter - features read #64
2024-07-04 09:23:57.144 [main] INFO  org.matsim.core.utils.misc.Counter - features read #128
2024-07-04 09:23:57.162 [main] INFO  org.matsim.core.utils.misc.Counter - features read #256
2024-07-04 09:23:57.195 [main] INFO  org.matsim.core.utils.misc.Counter - features read #512
2024-07-04 09:23:57.232 [main] INFO  org.matsim.core.utils.misc.Counter - features read #1024
2024-07-04 09:23:57.291 [main] INFO  org.matsim.core.utils.misc.Counter - features read #2048
2024-07-04 09:23:57.395 [main] INFO  org.matsim.core.utils.misc.Counter - features read #4096
2024-07-04 09:23:57.531 [main] INFO  org.matsim.core.utils.misc.Counter - features read #8192
2024-07-04 09:23:57.880 [main] INFO  org.matsim.core.utils.misc.Counter - features read #16384
2024-07-04 09:23:58.238 [main] INFO  org.matsim.core.utils.misc.Counter - features read #32768
2024-07-04 09:23:58.598 [main] INFO  org.matsim.core.utils.misc.Counter - features read #46565
2024-07-04 09:23:58.601 [main] INFO  hagrid.utils.GeoUtils - No filtering applied. 'ALL' region specified. Returning all features.
2024-07-04 09:23:59.289 [main] INFO  hagrid.demand.DemandProcessor - Total Number of Deliveries: 105984
2024-07-04 09:23:59.289 [main] INFO  hagrid.demand.DemandProcessor - Total Number of Parcels: 196885
2024-07-04 09:23:59.360 [main] INFO  hagrid.demand.DemandProcessor - Demand Border: 600
2024-07-04 09:23:59.360 [main] INFO  hagrid.demand.DemandProcessor - Need for Split: dhl_31275: Number of Deliveries: 1557
2024-07-04 09:23:59.380 [main] INFO  hagrid.demand.DemandProcessor - Initializing KMeans clustering with 3 clusters...
2024-07-04 09:23:59.688 [main] INFO  hagrid.demand.DemandProcessor - Cluster 1: 519 features
2024-07-04 09:23:59.688 [main] INFO  hagrid.demand.DemandProcessor - Cluster 2: 519 features
2024-07-04 09:23:59.688 [main] INFO  hagrid.demand.DemandProcessor - Cluster 3: 519 features
2024-07-04 09:23:59.693 [main] INFO  hagrid.demand.DemandProcessor - Total number of clusters created: 3
2024-07-04 09:24:00.799 [main] INFO  hagrid.demand.DemandProcessor - Chart saved successfully at: phd/output/demand_clustering/ClusterResults_dhl_31275.png
2024-07-04 09:24:00.805 [main] INFO  hagrid.demand.DemandProcessor - Assigned Demand for new Carrier dhl_31275_0: 519
2024-07-04 09:24:00.806 [main] INFO  hagrid.demand.DemandProcessor - Assigned Demand for new Carrier dhl_31275_1: 519
2024-07-04 09:24:00.808 [main] INFO  hagrid.demand.DemandProcessor - Assigned Demand for new Carrier dhl_31275_2: 519
2024-07-04 09:24:00.810 [main] INFO  hagrid.demand.DemandProcessor - Need for Split: dhl_30880: Number of Deliveries: 950
2024-07-04 09:24:00.812 [main] INFO  hagrid.demand.DemandProcessor - Initializing KMeans clustering with 2 clusters...
2024-07-04 09:24:00.826 [main] INFO  hagrid.demand.DemandProcessor - Cluster 1: 475 features
2024-07-04 09:24:00.827 [main] INFO  hagrid.demand.DemandProcessor - Cluster 2: 475 features
2024-07-04 09:24:00.828 [main] INFO  hagrid.demand.DemandProcessor - Total number of clusters created: 2
2024-07-04 09:24:01.246 [main] INFO  hagrid.demand.DemandProcessor - Chart saved successfully at: phd/output/demand_clustering/ClusterResults_dhl_30880.png
2024-07-04 09:24:01.248 [main] INFO  hagrid.demand.DemandProcessor - Assigned Demand for new Carrier dhl_30880_0: 475
2024-07-04 09:24:01.248 [main] INFO  hagrid.demand.DemandProcessor - Assigned Demand for new Carrier dhl_30880_1: 475
2024-07-04 09:24:01.250 [main] INFO  hagrid.demand.DemandProcessor - Need for Split: dhl_31311: Number of Deliveries: 839
2024-07-04 09:24:01.253 [main] INFO  hagrid.demand.DemandProcessor - Initializing KMeans clustering with 2 clusters...
2024-07-04 09:24:01.299 [main] INFO  hagrid.demand.DemandProcessor - Cluster 1: 419 features
2024-07-04 09:24:01.301 [main] INFO  hagrid.demand.DemandProcessor - Cluster 2: 420 features
2024-07-04 09:24:01.301 [main] INFO  hagrid.demand.DemandProcessor - Total number of clusters created: 2
2024-07-04 09:24:01.747 [main] INFO  hagrid.demand.DemandProcessor - Chart saved successfully at: phd/output/demand_clustering/ClusterResults_dhl_31311.png
2024-07-04 09:24:01.750 [main] INFO  hagrid.demand.DemandProcessor - Assigned Demand for new Carrier dhl_31311_0: 419
2024-07-04 09:24:01.750 [main] INFO  hagrid.demand.DemandProcessor - Assigned Demand for new Carrier dhl_31311_1: 420
2024-07-04 09:24:01.752 [main] INFO  hagrid.demand.DemandProcessor - Need for Split: ups_31535: Number of Deliveries: 719
2024-07-04 09:24:01.752 [main] INFO  hagrid.demand.DemandProcessor - Initializing KMeans clustering with 2 clusters...
2024-07-04 09:24:01.762 [main] INFO  hagrid.demand.DemandProcessor - Cluster 1: 359 features
2024-07-04 09:24:01.763 [main] INFO  hagrid.demand.DemandProcessor - Cluster 2: 360 features
2024-07-04 09:24:01.764 [main] INFO  hagrid.demand.DemandProcessor - Total number of clusters created: 2
2024-07-04 09:24:01.990 [main] INFO  hagrid.demand.DemandProcessor - Chart saved successfully at: phd/output/demand_clustering/ClusterResults_ups_31535.png
2024-07-04 09:24:01.990 [main] INFO  hagrid.demand.DemandProcessor - Assigned Demand for new Carrier ups_31535_0: 359
2024-07-04 09:24:01.990 [main] INFO  hagrid.demand.DemandProcessor - Assigned Demand for new Carrier ups_31535_1: 360
2024-07-04 09:24:02.000 [main] INFO  hagrid.demand.DemandProcessor - Need for Split: ups_31515: Number of Deliveries: 668
2024-07-04 09:24:02.002 [main] INFO  hagrid.demand.DemandProcessor - Initializing KMeans clustering with 2 clusters...
2024-07-04 09:24:02.015 [main] INFO  hagrid.demand.DemandProcessor - Cluster 1: 334 features
2024-07-04 09:24:02.016 [main] INFO  hagrid.demand.DemandProcessor - Cluster 2: 334 features
2024-07-04 09:24:02.018 [main] INFO  hagrid.demand.DemandProcessor - Total number of clusters created: 2
2024-07-04 09:24:02.254 [main] INFO  hagrid.demand.DemandProcessor - Chart saved successfully at: phd/output/demand_clustering/ClusterResults_ups_31515.png
2024-07-04 09:24:02.257 [main] INFO  hagrid.demand.DemandProcessor - Assigned Demand for new Carrier ups_31515_0: 334
2024-07-04 09:24:02.259 [main] INFO  hagrid.demand.DemandProcessor - Assigned Demand for new Carrier ups_31515_1: 334
2024-07-04 09:24:02.259 [main] INFO  hagrid.demand.DemandProcessor - Need for Split: dhl_30419: Number of Deliveries: 838
2024-07-04 09:24:02.261 [main] INFO  hagrid.demand.DemandProcessor - Initializing KMeans clustering with 2 clusters...
2024-07-04 09:24:02.269 [main] INFO  hagrid.demand.DemandProcessor - Cluster 1: 419 features
2024-07-04 09:24:02.270 [main] INFO  hagrid.demand.DemandProcessor - Cluster 2: 419 features
2024-07-04 09:24:02.270 [main] INFO  hagrid.demand.DemandProcessor - Total number of clusters created: 2
2024-07-04 09:24:02.539 [main] INFO  hagrid.demand.DemandProcessor - Chart saved successfully at: phd/output/demand_clustering/ClusterResults_dhl_30419.png
2024-07-04 09:24:02.541 [main] INFO  hagrid.demand.DemandProcessor - Assigned Demand for new Carrier dhl_30419_0: 419
2024-07-04 09:24:02.541 [main] INFO  hagrid.demand.DemandProcessor - Assigned Demand for new Carrier dhl_30419_1: 419
2024-07-04 09:24:02.544 [main] INFO  hagrid.demand.DemandProcessor - Need for Split: dhl_30519: Number of Deliveries: 650
2024-07-04 09:24:02.545 [main] INFO  hagrid.demand.DemandProcessor - Initializing KMeans clustering with 2 clusters...
2024-07-04 09:24:02.570 [main] INFO  hagrid.demand.DemandProcessor - Cluster 1: 325 features
2024-07-04 09:24:02.571 [main] INFO  hagrid.demand.DemandProcessor - Cluster 2: 325 features
2024-07-04 09:24:02.573 [main] INFO  hagrid.demand.DemandProcessor - Total number of clusters created: 2
2024-07-04 09:24:02.867 [main] INFO  hagrid.demand.DemandProcessor - Chart saved successfully at: phd/output/demand_clustering/ClusterResults_dhl_30519.png
2024-07-04 09:24:02.867 [main] INFO  hagrid.demand.DemandProcessor - Assigned Demand for new Carrier dhl_30519_0: 325
2024-07-04 09:24:02.867 [main] INFO  hagrid.demand.DemandProcessor - Assigned Demand for new Carrier dhl_30519_1: 325
2024-07-04 09:24:02.871 [main] INFO  hagrid.demand.DemandProcessor - Need for Split: dhl_30938: Number of Deliveries: 861
2024-07-04 09:24:02.871 [main] INFO  hagrid.demand.DemandProcessor - Initializing KMeans clustering with 2 clusters...
2024-07-04 09:24:02.895 [main] INFO  hagrid.demand.DemandProcessor - Cluster 1: 430 features
2024-07-04 09:24:02.896 [main] INFO  hagrid.demand.DemandProcessor - Cluster 2: 431 features
2024-07-04 09:24:02.898 [main] INFO  hagrid.demand.DemandProcessor - Total number of clusters created: 2
2024-07-04 09:24:03.039 [main] INFO  hagrid.demand.DemandProcessor - Chart saved successfully at: phd/output/demand_clustering/ClusterResults_dhl_30938.png
2024-07-04 09:24:03.039 [main] INFO  hagrid.demand.DemandProcessor - Assigned Demand for new Carrier dhl_30938_0: 430
2024-07-04 09:24:03.039 [main] INFO  hagrid.demand.DemandProcessor - Assigned Demand for new Carrier dhl_30938_1: 431
2024-07-04 09:24:03.049 [main] INFO  hagrid.demand.DemandProcessor - Need for Split: dhl_30916: Number of Deliveries: 945
2024-07-04 09:24:03.049 [main] INFO  hagrid.demand.DemandProcessor - Initializing KMeans clustering with 2 clusters...
2024-07-04 09:24:03.071 [main] INFO  hagrid.demand.DemandProcessor - Cluster 1: 472 features
2024-07-04 09:24:03.072 [main] INFO  hagrid.demand.DemandProcessor - Cluster 2: 473 features
2024-07-04 09:24:03.073 [main] INFO  hagrid.demand.DemandProcessor - Total number of clusters created: 2
2024-07-04 09:24:03.288 [main] INFO  hagrid.demand.DemandProcessor - Chart saved successfully at: phd/output/demand_clustering/ClusterResults_dhl_30916.png
2024-07-04 09:24:03.288 [main] INFO  hagrid.demand.DemandProcessor - Assigned Demand for new Carrier dhl_30916_0: 472
2024-07-04 09:24:03.288 [main] INFO  hagrid.demand.DemandProcessor - Assigned Demand for new Carrier dhl_30916_1: 473
2024-07-04 09:24:03.292 [main] INFO  hagrid.demand.DemandProcessor - Need for Split: ups_31275: Number of Deliveries: 729
2024-07-04 09:24:03.292 [main] INFO  hagrid.demand.DemandProcessor - Initializing KMeans clustering with 2 clusters...
2024-07-04 09:24:03.302 [main] INFO  hagrid.demand.DemandProcessor - Cluster 1: 364 features
2024-07-04 09:24:03.303 [main] INFO  hagrid.demand.DemandProcessor - Cluster 2: 365 features
2024-07-04 09:24:03.304 [main] INFO  hagrid.demand.DemandProcessor - Total number of clusters created: 2
2024-07-04 09:24:03.441 [main] INFO  hagrid.demand.DemandProcessor - Chart saved successfully at: phd/output/demand_clustering/ClusterResults_ups_31275.png
2024-07-04 09:24:03.441 [main] INFO  hagrid.demand.DemandProcessor - Assigned Demand for new Carrier ups_31275_0: 364
2024-07-04 09:24:03.454 [main] INFO  hagrid.demand.DemandProcessor - Assigned Demand for new Carrier ups_31275_1: 365
2024-07-04 09:24:03.455 [main] INFO  hagrid.demand.DemandProcessor - Need for Split: dhl_31303: Number of Deliveries: 1073
2024-07-04 09:24:03.457 [main] INFO  hagrid.demand.DemandProcessor - Initializing KMeans clustering with 2 clusters...
2024-07-04 09:24:03.484 [main] INFO  hagrid.demand.DemandProcessor - Cluster 1: 537 features
2024-07-04 09:24:03.485 [main] INFO  hagrid.demand.DemandProcessor - Cluster 2: 536 features
2024-07-04 09:24:03.486 [main] INFO  hagrid.demand.DemandProcessor - Total number of clusters created: 2
2024-07-04 09:24:03.658 [main] INFO  hagrid.demand.DemandProcessor - Chart saved successfully at: phd/output/demand_clustering/ClusterResults_dhl_31303.png
2024-07-04 09:24:03.660 [main] INFO  hagrid.demand.DemandProcessor - Assigned Demand for new Carrier dhl_31303_0: 537
2024-07-04 09:24:03.661 [main] INFO  hagrid.demand.DemandProcessor - Assigned Demand for new Carrier dhl_31303_1: 536
2024-07-04 09:24:03.663 [main] INFO  hagrid.demand.DemandProcessor - Need for Split: dhl_30952: Number of Deliveries: 692
2024-07-04 09:24:03.663 [main] INFO  hagrid.demand.DemandProcessor - Initializing KMeans clustering with 2 clusters...
2024-07-04 09:24:03.669 [main] INFO  hagrid.demand.DemandProcessor - Cluster 1: 346 features
2024-07-04 09:24:03.671 [main] INFO  hagrid.demand.DemandProcessor - Cluster 2: 346 features
2024-07-04 09:24:03.672 [main] INFO  hagrid.demand.DemandProcessor - Total number of clusters created: 2
2024-07-04 09:24:03.826 [main] INFO  hagrid.demand.DemandProcessor - Chart saved successfully at: phd/output/demand_clustering/ClusterResults_dhl_30952.png
2024-07-04 09:24:03.826 [main] INFO  hagrid.demand.DemandProcessor - Assigned Demand for new Carrier dhl_30952_0: 346
2024-07-04 09:24:03.836 [main] INFO  hagrid.demand.DemandProcessor - Assigned Demand for new Carrier dhl_30952_1: 346
2024-07-04 09:24:03.836 [main] INFO  hagrid.demand.DemandProcessor - Need for Split: dpd_30855: Number of Deliveries: 645
2024-07-04 09:24:03.838 [main] INFO  hagrid.demand.DemandProcessor - Initializing KMeans clustering with 2 clusters...
2024-07-04 09:24:03.842 [main] INFO  hagrid.demand.DemandProcessor - Cluster 1: 323 features
2024-07-04 09:24:03.842 [main] INFO  hagrid.demand.DemandProcessor - Cluster 2: 322 features
2024-07-04 09:24:03.842 [main] INFO  hagrid.demand.DemandProcessor - Total number of clusters created: 2
2024-07-04 09:24:03.994 [main] INFO  hagrid.demand.DemandProcessor - Chart saved successfully at: phd/output/demand_clustering/ClusterResults_dpd_30855.png
2024-07-04 09:24:03.995 [main] INFO  hagrid.demand.DemandProcessor - Assigned Demand for new Carrier dpd_30855_0: 323
2024-07-04 09:24:03.996 [main] INFO  hagrid.demand.DemandProcessor - Assigned Demand for new Carrier dpd_30855_1: 322
2024-07-04 09:24:03.997 [main] INFO  hagrid.demand.DemandProcessor - Need for Split: dhl_30855: Number of Deliveries: 1052
2024-07-04 09:24:03.998 [main] INFO  hagrid.demand.DemandProcessor - Initializing KMeans clustering with 2 clusters...
2024-07-04 09:24:04.013 [main] INFO  hagrid.demand.DemandProcessor - Cluster 1: 526 features
2024-07-04 09:24:04.014 [main] INFO  hagrid.demand.DemandProcessor - Cluster 2: 526 features
2024-07-04 09:24:04.015 [main] INFO  hagrid.demand.DemandProcessor - Total number of clusters created: 2
2024-07-04 09:24:04.168 [main] INFO  hagrid.demand.DemandProcessor - Chart saved successfully at: phd/output/demand_clustering/ClusterResults_dhl_30855.png
2024-07-04 09:24:04.168 [main] INFO  hagrid.demand.DemandProcessor - Assigned Demand for new Carrier dhl_30855_0: 526
2024-07-04 09:24:04.171 [main] INFO  hagrid.demand.DemandProcessor - Assigned Demand for new Carrier dhl_30855_1: 526
2024-07-04 09:24:04.171 [main] INFO  hagrid.demand.DemandProcessor - Need for Split: dhl_30559: Number of Deliveries: 682
2024-07-04 09:24:04.171 [main] INFO  hagrid.demand.DemandProcessor - Initializing KMeans clustering with 2 clusters...
2024-07-04 09:24:04.171 [main] INFO  hagrid.demand.DemandProcessor - Cluster 1: 341 features
2024-07-04 09:24:04.171 [main] INFO  hagrid.demand.DemandProcessor - Cluster 2: 341 features
2024-07-04 09:24:04.171 [main] INFO  hagrid.demand.DemandProcessor - Total number of clusters created: 2
2024-07-04 09:24:04.309 [main] INFO  hagrid.demand.DemandProcessor - Chart saved successfully at: phd/output/demand_clustering/ClusterResults_dhl_30559.png
2024-07-04 09:24:04.309 [main] INFO  hagrid.demand.DemandProcessor - Assigned Demand for new Carrier dhl_30559_0: 341
2024-07-04 09:24:04.309 [main] INFO  hagrid.demand.DemandProcessor - Assigned Demand for new Carrier dhl_30559_1: 341
2024-07-04 09:24:04.309 [main] INFO  hagrid.demand.DemandProcessor - Need for Split: dpd_31535: Number of Deliveries: 641
2024-07-04 09:24:04.309 [main] INFO  hagrid.demand.DemandProcessor - Initializing KMeans clustering with 2 clusters...
2024-07-04 09:24:04.325 [main] INFO  hagrid.demand.DemandProcessor - Cluster 1: 321 features
2024-07-04 09:24:04.325 [main] INFO  hagrid.demand.DemandProcessor - Cluster 2: 320 features
2024-07-04 09:24:04.325 [main] INFO  hagrid.demand.DemandProcessor - Total number of clusters created: 2
2024-07-04 09:24:04.458 [main] INFO  hagrid.demand.DemandProcessor - Chart saved successfully at: phd/output/demand_clustering/ClusterResults_dpd_31535.png
2024-07-04 09:24:04.458 [main] INFO  hagrid.demand.DemandProcessor - Assigned Demand for new Carrier dpd_31535_0: 321
2024-07-04 09:24:04.464 [main] INFO  hagrid.demand.DemandProcessor - Assigned Demand for new Carrier dpd_31535_1: 320
2024-07-04 09:24:04.466 [main] INFO  hagrid.demand.DemandProcessor - Need for Split: dhl_30890: Number of Deliveries: 1138
2024-07-04 09:24:04.466 [main] INFO  hagrid.demand.DemandProcessor - Initializing KMeans clustering with 2 clusters...
2024-07-04 09:24:04.476 [main] INFO  hagrid.demand.DemandProcessor - Cluster 1: 569 features
2024-07-04 09:24:04.477 [main] INFO  hagrid.demand.DemandProcessor - Cluster 2: 569 features
2024-07-04 09:24:04.478 [main] INFO  hagrid.demand.DemandProcessor - Total number of clusters created: 2
2024-07-04 09:24:04.608 [main] INFO  hagrid.demand.DemandProcessor - Chart saved successfully at: phd/output/demand_clustering/ClusterResults_dhl_30890.png
2024-07-04 09:24:04.618 [main] INFO  hagrid.demand.DemandProcessor - Assigned Demand for new Carrier dhl_30890_0: 569
2024-07-04 09:24:04.618 [main] INFO  hagrid.demand.DemandProcessor - Assigned Demand for new Carrier dhl_30890_1: 569
2024-07-04 09:24:04.618 [main] INFO  hagrid.demand.DemandProcessor - Need for Split: ups_30855: Number of Deliveries: 717
2024-07-04 09:24:04.620 [main] INFO  hagrid.demand.DemandProcessor - Initializing KMeans clustering with 2 clusters...
2024-07-04 09:24:04.624 [main] INFO  hagrid.demand.DemandProcessor - Cluster 1: 359 features
2024-07-04 09:24:04.625 [main] INFO  hagrid.demand.DemandProcessor - Cluster 2: 358 features
2024-07-04 09:24:04.625 [main] INFO  hagrid.demand.DemandProcessor - Total number of clusters created: 2
2024-07-04 09:24:04.723 [main] INFO  hagrid.demand.DemandProcessor - Chart saved successfully at: phd/output/demand_clustering/ClusterResults_ups_30855.png
2024-07-04 09:24:04.723 [main] INFO  hagrid.demand.DemandProcessor - Assigned Demand for new Carrier ups_30855_0: 359
2024-07-04 09:24:04.723 [main] INFO  hagrid.demand.DemandProcessor - Assigned Demand for new Carrier ups_30855_1: 358
2024-07-04 09:24:04.730 [main] INFO  hagrid.demand.DemandProcessor - Need for Split: dhl_30826: Number of Deliveries: 648
2024-07-04 09:24:04.730 [main] INFO  hagrid.demand.DemandProcessor - Initializing KMeans clustering with 2 clusters...
2024-07-04 09:24:04.733 [main] INFO  hagrid.demand.DemandProcessor - Cluster 1: 324 features
2024-07-04 09:24:04.733 [main] INFO  hagrid.demand.DemandProcessor - Cluster 2: 324 features
2024-07-04 09:24:04.733 [main] INFO  hagrid.demand.DemandProcessor - Total number of clusters created: 2
2024-07-04 09:24:04.858 [main] INFO  hagrid.demand.DemandProcessor - Chart saved successfully at: phd/output/demand_clustering/ClusterResults_dhl_30826.png
2024-07-04 09:24:04.859 [main] INFO  hagrid.demand.DemandProcessor - Assigned Demand for new Carrier dhl_30826_0: 324
2024-07-04 09:24:04.859 [main] INFO  hagrid.demand.DemandProcessor - Assigned Demand for new Carrier dhl_30826_1: 324
2024-07-04 09:24:04.860 [main] INFO  hagrid.demand.DemandProcessor - Need for Split: dhl_30926: Number of Deliveries: 924
2024-07-04 09:24:04.860 [main] INFO  hagrid.demand.DemandProcessor - Initializing KMeans clustering with 2 clusters...
2024-07-04 09:24:04.864 [main] INFO  hagrid.demand.DemandProcessor - Cluster 1: 462 features
2024-07-04 09:24:04.865 [main] INFO  hagrid.demand.DemandProcessor - Cluster 2: 462 features
2024-07-04 09:24:04.865 [main] INFO  hagrid.demand.DemandProcessor - Total number of clusters created: 2
2024-07-04 09:24:04.993 [main] INFO  hagrid.demand.DemandProcessor - Chart saved successfully at: phd/output/demand_clustering/ClusterResults_dhl_30926.png
2024-07-04 09:24:04.993 [main] INFO  hagrid.demand.DemandProcessor - Assigned Demand for new Carrier dhl_30926_0: 462
2024-07-04 09:24:05.000 [main] INFO  hagrid.demand.DemandProcessor - Assigned Demand for new Carrier dhl_30926_1: 462
2024-07-04 09:24:05.000 [main] INFO  hagrid.demand.DemandProcessor - Need for Split: dhl_31832: Number of Deliveries: 1059
2024-07-04 09:24:05.001 [main] INFO  hagrid.demand.DemandProcessor - Initializing KMeans clustering with 2 clusters...
2024-07-04 09:24:05.007 [main] INFO  hagrid.demand.DemandProcessor - Cluster 1: 529 features
2024-07-04 09:24:05.009 [main] INFO  hagrid.demand.DemandProcessor - Cluster 2: 530 features
2024-07-04 09:24:05.009 [main] INFO  hagrid.demand.DemandProcessor - Total number of clusters created: 2
2024-07-04 09:24:05.124 [main] INFO  hagrid.demand.DemandProcessor - Chart saved successfully at: phd/output/demand_clustering/ClusterResults_dhl_31832.png
2024-07-04 09:24:05.135 [main] INFO  hagrid.demand.DemandProcessor - Assigned Demand for new Carrier dhl_31832_0: 529
2024-07-04 09:24:05.135 [main] INFO  hagrid.demand.DemandProcessor - Assigned Demand for new Carrier dhl_31832_1: 530
2024-07-04 09:24:05.135 [main] INFO  hagrid.demand.DemandProcessor - Need for Split: dhl_31535: Number of Deliveries: 1661
2024-07-04 09:24:05.138 [main] INFO  hagrid.demand.DemandProcessor - Initializing KMeans clustering with 3 clusters...
2024-07-04 09:24:05.160 [main] INFO  hagrid.demand.DemandProcessor - Cluster 1: 554 features
2024-07-04 09:24:05.161 [main] INFO  hagrid.demand.DemandProcessor - Cluster 2: 553 features
2024-07-04 09:24:05.162 [main] INFO  hagrid.demand.DemandProcessor - Cluster 3: 554 features
2024-07-04 09:24:05.162 [main] INFO  hagrid.demand.DemandProcessor - Total number of clusters created: 3
2024-07-04 09:24:05.293 [main] INFO  hagrid.demand.DemandProcessor - Chart saved successfully at: phd/output/demand_clustering/ClusterResults_dhl_31535.png
2024-07-04 09:24:05.293 [main] INFO  hagrid.demand.DemandProcessor - Assigned Demand for new Carrier dhl_31535_0: 554
2024-07-04 09:24:05.296 [main] INFO  hagrid.demand.DemandProcessor - Assigned Demand for new Carrier dhl_31535_1: 553
2024-07-04 09:24:05.296 [main] INFO  hagrid.demand.DemandProcessor - Assigned Demand for new Carrier dhl_31535_2: 554
2024-07-04 09:24:05.296 [main] INFO  hagrid.demand.DemandProcessor - Need for Split: dpd_31275: Number of Deliveries: 620
2024-07-04 09:24:05.297 [main] INFO  hagrid.demand.DemandProcessor - Initializing KMeans clustering with 2 clusters...
2024-07-04 09:24:05.299 [main] INFO  hagrid.demand.DemandProcessor - Cluster 1: 310 features
2024-07-04 09:24:05.299 [main] INFO  hagrid.demand.DemandProcessor - Cluster 2: 310 features
2024-07-04 09:24:05.299 [main] INFO  hagrid.demand.DemandProcessor - Total number of clusters created: 2
2024-07-04 09:24:05.395 [main] INFO  hagrid.demand.DemandProcessor - Chart saved successfully at: phd/output/demand_clustering/ClusterResults_dpd_31275.png
2024-07-04 09:24:05.396 [main] INFO  hagrid.demand.DemandProcessor - Assigned Demand for new Carrier dpd_31275_0: 310
2024-07-04 09:24:05.397 [main] INFO  hagrid.demand.DemandProcessor - Assigned Demand for new Carrier dpd_31275_1: 310
2024-07-04 09:24:05.398 [main] INFO  hagrid.demand.DemandProcessor - Need for Split: dhl_31515: Number of Deliveries: 1407
2024-07-04 09:24:05.398 [main] INFO  hagrid.demand.DemandProcessor - Initializing KMeans clustering with 3 clusters...
2024-07-04 09:24:05.412 [main] INFO  hagrid.demand.DemandProcessor - Cluster 1: 469 features
2024-07-04 09:24:05.412 [main] INFO  hagrid.demand.DemandProcessor - Cluster 2: 469 features
2024-07-04 09:24:05.422 [main] INFO  hagrid.demand.DemandProcessor - Cluster 3: 469 features
2024-07-04 09:24:05.422 [main] INFO  hagrid.demand.DemandProcessor - Total number of clusters created: 3
2024-07-04 09:24:05.541 [main] INFO  hagrid.demand.DemandProcessor - Chart saved successfully at: phd/output/demand_clustering/ClusterResults_dhl_31515.png
2024-07-04 09:24:05.541 [main] INFO  hagrid.demand.DemandProcessor - Assigned Demand for new Carrier dhl_31515_0: 469
2024-07-04 09:24:05.541 [main] INFO  hagrid.demand.DemandProcessor - Assigned Demand for new Carrier dhl_31515_1: 469
2024-07-04 09:24:05.541 [main] INFO  hagrid.demand.DemandProcessor - Assigned Demand for new Carrier dhl_31515_2: 469
2024-07-04 09:24:05.541 [main] INFO  hagrid.demand.DemandProcessor - Need for Split: dhl_30823: Number of Deliveries: 657
2024-07-04 09:24:05.553 [main] INFO  hagrid.demand.DemandProcessor - Initializing KMeans clustering with 2 clusters...
2024-07-04 09:24:05.557 [main] INFO  hagrid.demand.DemandProcessor - Cluster 1: 329 features
2024-07-04 09:24:05.558 [main] INFO  hagrid.demand.DemandProcessor - Cluster 2: 328 features
2024-07-04 09:24:05.558 [main] INFO  hagrid.demand.DemandProcessor - Total number of clusters created: 2
2024-07-04 09:24:05.651 [main] INFO  hagrid.demand.DemandProcessor - Chart saved successfully at: phd/output/demand_clustering/ClusterResults_dhl_30823.png
2024-07-04 09:24:05.652 [main] INFO  hagrid.demand.DemandProcessor - Assigned Demand for new Carrier dhl_30823_0: 329
2024-07-04 09:24:05.652 [main] INFO  hagrid.demand.DemandProcessor - Assigned Demand for new Carrier dhl_30823_1: 328
2024-07-04 09:24:05.653 [main] INFO  hagrid.demand.DemandProcessor - Need for Split: dhl_30966: Number of Deliveries: 648
2024-07-04 09:24:05.654 [main] INFO  hagrid.demand.DemandProcessor - Initializing KMeans clustering with 2 clusters...
2024-07-04 09:24:05.656 [main] INFO  hagrid.demand.DemandProcessor - Cluster 1: 324 features
2024-07-04 09:24:05.657 [main] INFO  hagrid.demand.DemandProcessor - Cluster 2: 324 features
2024-07-04 09:24:05.657 [main] INFO  hagrid.demand.DemandProcessor - Total number of clusters created: 2
2024-07-04 09:24:05.751 [main] INFO  hagrid.demand.DemandProcessor - Chart saved successfully at: phd/output/demand_clustering/ClusterResults_dhl_30966.png
2024-07-04 09:24:05.751 [main] INFO  hagrid.demand.DemandProcessor - Assigned Demand for new Carrier dhl_30966_0: 324
2024-07-04 09:24:05.753 [main] INFO  hagrid.demand.DemandProcessor - Assigned Demand for new Carrier dhl_30966_1: 324
2024-07-04 09:24:05.754 [main] INFO  hagrid.demand.DemandProcessor - Need for Split: dhl_30900: Number of Deliveries: 1308
2024-07-04 09:24:05.755 [main] INFO  hagrid.demand.DemandProcessor - Initializing KMeans clustering with 3 clusters...
2024-07-04 09:24:05.768 [main] INFO  hagrid.demand.DemandProcessor - Cluster 1: 436 features
2024-07-04 09:24:05.769 [main] INFO  hagrid.demand.DemandProcessor - Cluster 2: 436 features
2024-07-04 09:24:05.769 [main] INFO  hagrid.demand.DemandProcessor - Cluster 3: 436 features
2024-07-04 09:24:05.770 [main] INFO  hagrid.demand.DemandProcessor - Total number of clusters created: 3
2024-07-04 09:24:05.889 [main] INFO  hagrid.demand.DemandProcessor - Chart saved successfully at: phd/output/demand_clustering/ClusterResults_dhl_30900.png
2024-07-04 09:24:05.889 [main] INFO  hagrid.demand.DemandProcessor - Assigned Demand for new Carrier dhl_30900_0: 436
2024-07-04 09:24:05.897 [main] INFO  hagrid.demand.DemandProcessor - Assigned Demand for new Carrier dhl_30900_1: 436
2024-07-04 09:24:05.897 [main] INFO  hagrid.demand.DemandProcessor - Assigned Demand for new Carrier dhl_30900_2: 436
2024-07-04 09:24:05.897 [main] INFO  hagrid.demand.DemandProcessor - Need for Split: dhl_31319: Number of Deliveries: 945
2024-07-04 09:24:05.897 [main] INFO  hagrid.demand.DemandProcessor - Initializing KMeans clustering with 2 clusters...
2024-07-04 09:24:05.903 [main] INFO  hagrid.demand.DemandProcessor - Cluster 1: 473 features
2024-07-04 09:24:05.903 [main] INFO  hagrid.demand.DemandProcessor - Cluster 2: 472 features
2024-07-04 09:24:05.904 [main] INFO  hagrid.demand.DemandProcessor - Total number of clusters created: 2
2024-07-04 09:24:06.008 [main] INFO  hagrid.demand.DemandProcessor - Chart saved successfully at: phd/output/demand_clustering/ClusterResults_dhl_31319.png
2024-07-04 09:24:06.018 [main] INFO  hagrid.demand.DemandProcessor - Assigned Demand for new Carrier dhl_31319_0: 473
2024-07-04 09:24:06.018 [main] INFO  hagrid.demand.DemandProcessor - Assigned Demand for new Carrier dhl_31319_1: 472
2024-07-04 09:24:06.077 [main] INFO  hagrid.demand.DemandProcessor - Total Number of Deliveries: 105984
2024-07-04 09:24:06.077 [main] INFO  hagrid.demand.DemandProcessor - Total Number of Parcels: 196885
2024-07-04 09:24:06.077 [main] INFO  hagrid.demand.DemandProcessor - Validation completed successfully: Total number of deliveries and parcels match.
2024-07-04 09:24:06.077 [main] INFO  hagrid.demand.DemandProcessor - Freight demand data processing completed.
2024-07-04 09:24:06.082 [main] INFO  hagrid.App - Demand data processing completed.
2024-07-04 09:24:06.082 [main] INFO  hagrid.App - Initializing DeliveryGenerator...
2024-07-04 09:24:06.083 [main] INFO  hagrid.App - Starting delivery generation based on sorted Demand...
2024-07-04 09:24:06.084 [main] INFO  hagrid.demand.DeliveryGenerator - Generating parcels from sorted carrier demand...
2024-07-04 09:24:06.085 [main] INFO  hagrid.demand.DeliveryGenerator - Total Parcels from carrier demand: 105984
2024-07-04 09:24:06.472 [main] INFO  hagrid.utils.general.ParcelStatisticsLogger - === Overall Summary ===
  Total Deliveries      : 106.028
  Total B2B Deliveries  : 19.188
  Total Parcels         : 197.985
  Total B2B Parcels     : 47.252
  B2B Delivery Ratio    : 18,10%
  B2B Parcel Ratio      : 23,87%
  Average Weight        : 4,92
  Average B2B Weight    : 9,22
  Total Locker Deliveries: 44
  Total Locker Parcels: 1.100
  Locker Delivery Ratio : 0,04%
  Locker Parcel Ratio : 0,56%

2024-07-04 09:24:06.474 [main] INFO  hagrid.demand.DeliveryGenerator - Parcel generation completed.
2024-07-04 09:24:06.474 [main] INFO  hagrid.App - Delivery and parcel generation completed.
2024-07-04 09:24:06.474 [main] INFO  hagrid.App - Initializing CarrierGenerator...
2024-07-04 09:24:06.476 [main] INFO  hagrid.App - Starting carrier generation based on sorted demand...
2024-07-04 09:24:06.477 [main] INFO  hagrid.demand.CarrierGenerator - Generating carriers from sorted deliveries and parcels...
2024-07-04 09:24:06.477 [main] INFO  hagrid.demand.CarrierGenerator - Getting scenario elements...
2024-07-04 09:24:06.477 [main] INFO  hagrid.demand.CarrierGenerator - Scenario elements retrieved.
2024-07-04 09:24:06.609 [main] INFO  org.matsim.core.network.NetworkImpl - building LinkQuadTree for nodes: xrange(282281.45131461613,954092.9718280886); yrange(5239566.628775733,6025734.814523158)
2024-07-04 09:24:08.213 [main] INFO  org.matsim.core.network.NetworkImpl - Building LinkQuadTree took 1.71 seconds.
2024-07-04 09:24:33.797 [main] INFO  hagrid.demand.CarrierGenerator - Carrier with the most services: amazon_30855 with 598 services
2024-07-04 09:24:33.797 [main] INFO  hagrid.demand.CarrierGenerator - Carrier with the least services: hermes_30938 with 61 services
2024-07-04 09:24:33.797 [main] INFO  hagrid.demand.CarrierGenerator - Number of carriers with fewer than 5 services: 0
2024-07-04 09:24:33.799 [main] INFO  hagrid.demand.CarrierGenerator - Carriers with insufficient services: []
2024-07-04 09:24:33.799 [main] INFO  hagrid.demand.CarrierGenerator - Number of remaining carriers: 389
2024-07-04 09:24:33.799 [main] INFO  hagrid.demand.CarrierGenerator - Carriers generated: 389
2024-07-04 09:24:33.799 [main] INFO  hagrid.demand.CarrierGenerator - Validating carrier missed deliveries...
2024-07-04 09:24:33.801 [main] INFO  hagrid.demand.CarrierGenerator - Validation passed for all carriers and their missed parcel deliveries.
2024-07-04 09:24:33.801 [main] INFO  hagrid.demand.CarrierGenerator - Validation of carrier missed deliveries completed.
2024-07-04 09:24:33.802 [main] INFO  hagrid.demand.CarrierGenerator - Validating carrier services...
2024-07-04 09:24:33.859 [main] INFO  hagrid.demand.CarrierGenerator - Correction factor for Delivery Size Adjustment: 1
2024-07-04 09:24:34.004 [main] INFO  hagrid.demand.CarrierGenerator - Missed parcels for provider amazon: average rate 93,26%
2024-07-04 09:24:34.005 [main] INFO  hagrid.demand.CarrierGenerator - Expected rate for provider amazon: 93,00%
2024-07-04 09:24:34.005 [main] INFO  hagrid.demand.CarrierGenerator - Missed parcels for provider fedex: average rate 92,05%
2024-07-04 09:24:34.006 [main] INFO  hagrid.demand.CarrierGenerator - Expected rate for provider fedex: 92,00%
2024-07-04 09:24:34.007 [main] INFO  hagrid.demand.CarrierGenerator - Missed parcels for provider ups: average rate 91,84%
2024-07-04 09:24:34.007 [main] INFO  hagrid.demand.CarrierGenerator - Expected rate for provider ups: 92,00%
2024-07-04 09:24:34.007 [main] INFO  hagrid.demand.CarrierGenerator - Missed parcels for provider dpd: average rate 91,91%
2024-07-04 09:24:34.007 [main] INFO  hagrid.demand.CarrierGenerator - Expected rate for provider dpd: 92,00%
2024-07-04 09:24:34.007 [main] INFO  hagrid.demand.CarrierGenerator - Missed parcels for provider dhl: average rate 95,49%
2024-07-04 09:24:34.010 [main] INFO  hagrid.demand.CarrierGenerator - Expected rate for provider dhl: 96,00%
2024-07-04 09:24:34.010 [main] INFO  hagrid.demand.CarrierGenerator - Missed parcels for provider hermes: average rate 93,29%
2024-07-04 09:24:34.010 [main] INFO  hagrid.demand.CarrierGenerator - Expected rate for provider hermes: 93,00%
2024-07-04 09:24:34.011 [main] INFO  hagrid.demand.CarrierGenerator - Missed parcels for provider gls: average rate 93,49%
2024-07-04 09:24:34.011 [main] INFO  hagrid.demand.CarrierGenerator - Expected rate for provider gls: 93,00%
2024-07-04 09:24:34.228 [main] INFO  hagrid.demand.CarrierGenerator - === Delivery Statistics by Provider ===
Provider: amazon
  Total Services     : 12.592
  B2B Services       : 283
  Total Parcels      : 18.401
  B2B Parcels        : 532
  B2B Service Ratio  : 2,25%
  B2B Parcel Ratio   : 2,89%
  Total Weight       : 73401,68
  Total B2B Weight   : 4848,26
  Average Weight     : 3,99
  Average B2B Weight : 9,11

Provider: fedex
  Total Services     : 9.911
  B2B Services       : 2.115
  Total Parcels      : 13.225
  B2B Parcels        : 3.415
  B2B Service Ratio  : 21,34%
  B2B Parcel Ratio   : 25,82%
  Total Weight       : 69171,56
  Total B2B Weight   : 31914,23
  Average Weight     : 5,23
  Average B2B Weight : 9,35

Provider: ups
  Total Services     : 16.314
  B2B Services       : 3.286
  Total Parcels      : 26.491
  B2B Parcels        : 6.854
  B2B Service Ratio  : 20,14%
  B2B Parcel Ratio   : 25,87%
  Total Weight       : 140468,73
  Total B2B Weight   : 64059,80
  Average Weight     : 5,30
  Average B2B Weight : 9,35

Provider: dpd
  Total Services     : 14.390
  B2B Services       : 3.027
  Total Parcels      : 22.122
  B2B Parcels        : 5.919
  B2B Service Ratio  : 21,04%
  B2B Parcel Ratio   : 26,76%
  Total Weight       : 117658,89
  Total B2B Weight   : 55058,27
  Average Weight     : 5,32
  Average B2B Weight : 9,30

Provider: dhl
  Total Services     : 31.058
  B2B Services       : 5.879
  Total Parcels      : 87.462
  B2B Parcels        : 22.822
  B2B Service Ratio  : 18,93%
  B2B Parcel Ratio   : 26,09%
  Total Weight       : 464706,65
  Total B2B Weight   : 216995,08
  Average Weight     : 5,31
  Average B2B Weight : 9,51

Provider: hermes
  Total Services     : 9.570
  B2B Services       : 2.091
  Total Parcels      : 12.603
  B2B Parcels        : 3.160
  B2B Service Ratio  : 21,85%
  B2B Parcel Ratio   : 25,07%
  Total Weight       : 66083,48
  Total B2B Weight   : 29806,08
  Average Weight     : 5,24
  Average B2B Weight : 9,43

Provider: gls
  Total Services     : 12.194
  B2B Services       : 2.508
  Total Parcels      : 17.681
  B2B Parcels        : 4.550
  B2B Service Ratio  : 20,57%
  B2B Parcel Ratio   : 25,73%
  Total Weight       : 92108,85
  Total B2B Weight   : 42458,55
  Average Weight     : 5,21
  Average B2B Weight : 9,33

=== Total Statistics ===
Total Services     : 106.029
Total B2B Services : 19.189
Total Parcels      : 197.985
Total B2B Parcels  : 47.252
Total Weight       : 1023599,84
Total B2B Weight   : 445140,27
Average Weight     : 5,17
Average B2B Weight : 9,42

2024-07-04 09:24:34.239 [main] INFO  hagrid.demand.CarrierGenerator - Validation passed: All carrier services match the original deliveries summary.
2024-07-04 09:24:34.240 [main] INFO  hagrid.demand.CarrierGenerator - Total deliveries match: 106028.
2024-07-04 09:24:34.240 [main] INFO  hagrid.demand.CarrierGenerator - Total parcels match: 197985.
2024-07-04 09:24:34.241 [main] INFO  hagrid.demand.CarrierGenerator - Total B2B deliveries match: 19188.
2024-07-04 09:24:34.241 [main] INFO  hagrid.demand.CarrierGenerator - Total B2B parcels match: 47252.
2024-07-04 09:24:34.242 [main] INFO  hagrid.demand.CarrierGenerator - Validation of carrier completed.
2024-07-04 09:24:34.242 [main] INFO  hagrid.demand.CarrierGenerator - Starting validation of supply demand...
2024-07-04 09:24:34.256 [main] INFO  hagrid.demand.CarrierGenerator - Hub ID: dhl_hannover_sued, Assigned Supply Demand: 12027
2024-07-04 09:24:34.256 [main] INFO  hagrid.demand.CarrierGenerator - Hub ID: dp/dhl_burgdorf, Assigned Supply Demand: 3948
2024-07-04 09:24:34.257 [main] INFO  hagrid.demand.CarrierGenerator - Hub ID: dhl_hannover_gueterbahnhof, Assigned Supply Demand: 26150
2024-07-04 09:24:34.257 [main] INFO  hagrid.demand.CarrierGenerator - Hub ID: dpd_lehrte, Assigned Supply Demand: 22122
2024-07-04 09:24:34.257 [main] INFO  hagrid.demand.CarrierGenerator - Hub ID: dhl_pattensen, Assigned Supply Demand: 4634
2024-07-04 09:24:34.260 [main] INFO  hagrid.demand.CarrierGenerator - Hub ID: gls_laatzen, Assigned Supply Demand: 17681
2024-07-04 09:24:34.260 [main] INFO  hagrid.demand.CarrierGenerator - Hub ID: dp/dhl_springe, Assigned Supply Demand: 2086
2024-07-04 09:24:34.262 [main] INFO  hagrid.demand.CarrierGenerator - Hub ID: dp/dhl_garbsen, Assigned Supply Demand: 3470
2024-07-04 09:24:34.262 [main] INFO  hagrid.demand.CarrierGenerator - Hub ID: dp/dhl_seelze, Assigned Supply Demand: 3162
2024-07-04 09:24:34.262 [main] INFO  hagrid.demand.CarrierGenerator - Hub ID: hermes_langenhagen, Assigned Supply Demand: 12603
2024-07-04 09:24:34.262 [main] INFO  hagrid.demand.CarrierGenerator - Hub ID: dp/dhl_wunstorf, Assigned Supply Demand: 4299
2024-07-04 09:24:34.262 [main] INFO  hagrid.demand.CarrierGenerator - Hub ID: dp/dhl_wedemark, Assigned Supply Demand: 7690
2024-07-04 09:24:34.262 [main] INFO  hagrid.demand.CarrierGenerator - Hub ID: dp/dhl_uetze, Assigned Supply Demand: 1468
2024-07-04 09:24:34.264 [main] INFO  hagrid.demand.CarrierGenerator - Hub ID: dp/dhl_lehrte, Assigned Supply Demand: 3157
2024-07-04 09:24:34.264 [main] INFO  hagrid.demand.CarrierGenerator - Hub ID: dp/dhl_neustadt_am_ruebenberge, Assigned Supply Demand: 3191
2024-07-04 09:24:34.264 [main] INFO  hagrid.demand.CarrierGenerator - Hub ID: dhl_hannover_anderten, Assigned Supply Demand: 7838
2024-07-04 09:24:34.264 [main] INFO  hagrid.demand.CarrierGenerator - Hub ID: amazon_garbsen, Assigned Supply Demand: 18401
2024-07-04 09:24:34.266 [main] INFO  hagrid.demand.CarrierGenerator - Hub ID: fedex_hannover, Assigned Supply Demand: 13225
2024-07-04 09:24:34.267 [main] INFO  hagrid.demand.CarrierGenerator - Hub ID: ups_hannover, Assigned Supply Demand: 26491
2024-07-04 09:24:34.267 [main] INFO  hagrid.demand.CarrierGenerator - Hub ID: dp/dhl_wennigsen, Assigned Supply Demand: 3487
2024-07-04 09:24:34.268 [main] INFO  hagrid.demand.CarrierGenerator - Hub ID: dp/dhl_sehnde, Assigned Supply Demand: 855
2024-07-04 09:24:34.268 [main] INFO  hagrid.demand.CarrierGenerator - Total Parcels: 197985, Total Assigned Supply Demand: 197985
2024-07-04 09:24:34.268 [main] INFO  hagrid.demand.CarrierGenerator - Validation successful: Total parcels match total assigned supply demand.
2024-07-04 09:24:34.269 [main] INFO  hagrid.utils.general.HAGRIDUtils - Starting to check and log carrier attributes
2024-07-04 09:24:34.709 [main] INFO  hagrid.demand.CarrierGenerator - Carrier generation completed.
2024-07-04 09:24:34.726 [main] INFO  org.matsim.freight.carriers.CarrierPlanXmlWriterV2_1 - write carrier plans
2024-07-04 09:24:34.734 [main] WARN  org.matsim.utils.objectattributes.ObjectAttributesConverter - No AttributeConverter found for class hagrid.utils.demand.Hub. Not all attribute values can be converted.
2024-07-04 09:24:35.971 [main] INFO  org.matsim.freight.carriers.CarrierPlanXmlWriterV2_1 - done
2024-07-04 09:24:35.971 [main] INFO  hagrid.App - Carrier generation completed.
2024-07-04 09:24:35.971 [main] INFO  hagrid.App - Initializing SupplyCarrierGenerator...
2024-07-04 09:24:35.988 [main] INFO  hagrid.App - Starting supply carrier generation based on generated carriers...
2024-07-04 09:24:35.988 [main] INFO  hagrid.demand.SupplyCarrierGenerator - Starting supply carrier generation...
2024-07-04 09:24:35.988 [main] INFO  hagrid.demand.SupplyCarrierGenerator - Retrieved 389 carriers from the scenario.
2024-07-04 09:24:35.988 [main] INFO  hagrid.demand.SupplyCarrierGenerator - Retrieved 21 hubs, 12 vehicle types, and network from the scenario.
2024-07-04 09:24:35.998 [main] INFO  hagrid.demand.SupplyCarrierGenerator - Creating Hub Supply Carrier
2024-07-04 09:24:36.002 [main] INFO  hagrid.demand.SupplyCarrierGenerator - Supply Carrier ID = supply_from_dhl_anderten, Assigned Demand = 85622
2024-07-04 09:24:36.003 [main] INFO  hagrid.demand.SupplyCarrierGenerator - Supply Carrier ID = supply_to_dhl_anderten, Assigned Demand = 101298
2024-07-04 09:24:36.003 [main] INFO  hagrid.demand.SupplyCarrierGenerator - Supply Carrier ID = supply_dpd_lehrte, Assigned Demand = 44244
2024-07-04 09:24:36.004 [main] INFO  hagrid.demand.SupplyCarrierGenerator - Supply Carrier ID = supply_gls_laatzen, Assigned Demand = 35362
2024-07-04 09:24:36.005 [main] INFO  hagrid.demand.SupplyCarrierGenerator - Supply Carrier ID = supply_hermes_langenhagen, Assigned Demand = 25206
2024-07-04 09:24:36.005 [main] INFO  hagrid.demand.SupplyCarrierGenerator - Supply Carrier ID = supply_amazon_garbsen, Assigned Demand = 36802
2024-07-04 09:24:36.005 [main] INFO  hagrid.demand.SupplyCarrierGenerator - Supply Carrier ID = supply_fedex_hannover, Assigned Demand = 26450
2024-07-04 09:24:36.005 [main] INFO  hagrid.demand.SupplyCarrierGenerator - Supply Carrier ID = supply_ups_hannover, Assigned Demand = 52982
2024-07-04 09:24:36.005 [main] INFO  hagrid.demand.SupplyCarrierGenerator - Supply Carrier ID = supply_dp_dhl_burgdorf, Assigned Demand = 7896
2024-07-04 09:24:36.005 [main] INFO  hagrid.demand.SupplyCarrierGenerator - Supply Carrier ID = supply_dp_dhl_springe, Assigned Demand = 4172
2024-07-04 09:24:36.007 [main] INFO  hagrid.demand.SupplyCarrierGenerator - Supply Carrier ID = supply_dp_dhl_garbsen, Assigned Demand = 6940
2024-07-04 09:24:36.007 [main] INFO  hagrid.demand.SupplyCarrierGenerator - Supply Carrier ID = supply_dp_dhl_seelze, Assigned Demand = 6324
2024-07-04 09:24:36.008 [main] INFO  hagrid.demand.SupplyCarrierGenerator - Supply Carrier ID = supply_dp_dhl_wunstorf, Assigned Demand = 8598
2024-07-04 09:24:36.009 [main] INFO  hagrid.demand.SupplyCarrierGenerator - Supply Carrier ID = supply_dp_dhl_wedemark, Assigned Demand = 15380
2024-07-04 09:24:36.010 [main] INFO  hagrid.demand.SupplyCarrierGenerator - Supply Carrier ID = supply_dp_dhl_uetze, Assigned Demand = 2936
2024-07-04 09:24:36.010 [main] INFO  hagrid.demand.SupplyCarrierGenerator - Supply Carrier ID = supply_dp_dhl_lehrte, Assigned Demand = 6314
2024-07-04 09:24:36.011 [main] INFO  hagrid.demand.SupplyCarrierGenerator - Supply Carrier ID = supply_dp_dhl_neustadt_am_ruebenberge, Assigned Demand = 6382
2024-07-04 09:24:36.011 [main] INFO  hagrid.demand.SupplyCarrierGenerator - Supply Carrier ID = supply_dp_dhl_wennigsen, Assigned Demand = 6974
2024-07-04 09:24:36.012 [main] INFO  hagrid.demand.SupplyCarrierGenerator - Supply Carrier ID = supply_dp_dhl_sehnde, Assigned Demand = 1710
2024-07-04 09:24:36.012 [main] INFO  hagrid.demand.SupplyCarrierGenerator - Split Supply Services in different Starting Points on the Map
2024-07-04 09:24:36.013 [main] INFO  hagrid.demand.SupplyCarrierGenerator - Split Carrier ID = supply_to_dhl_anderten_east, Direction = east, Demand = 18000
2024-07-04 09:24:36.014 [main] INFO  hagrid.demand.SupplyCarrierGenerator - Split Carrier ID = supply_to_dhl_anderten_south, Direction = south, Demand = 32000
2024-07-04 09:24:36.015 [main] INFO  hagrid.demand.SupplyCarrierGenerator - Split Carrier ID = supply_to_dhl_anderten_north, Direction = north, Demand = 33298
2024-07-04 09:24:36.015 [main] INFO  hagrid.demand.SupplyCarrierGenerator - Split Carrier ID = supply_to_dhl_anderten_west, Direction = west, Demand = 18000
2024-07-04 09:24:36.016 [main] INFO  hagrid.demand.SupplyCarrierGenerator - Split Carrier ID = supply_dpd_lehrte_east, Direction = east, Demand = 4000
2024-07-04 09:24:36.017 [main] INFO  hagrid.demand.SupplyCarrierGenerator - Split Carrier ID = supply_dpd_lehrte_south, Direction = south, Demand = 10000
2024-07-04 09:24:36.017 [main] INFO  hagrid.demand.SupplyCarrierGenerator - Split Carrier ID = supply_dpd_lehrte_north, Direction = north, Demand = 16244
2024-07-04 09:24:36.018 [main] INFO  hagrid.demand.SupplyCarrierGenerator - Split Carrier ID = supply_dpd_lehrte_west, Direction = west, Demand = 14000
2024-07-04 09:24:36.018 [main] INFO  hagrid.demand.SupplyCarrierGenerator - Split Carrier ID = supply_gls_laatzen_east, Direction = east, Demand = 14000
2024-07-04 09:24:36.019 [main] INFO  hagrid.demand.SupplyCarrierGenerator - Split Carrier ID = supply_gls_laatzen_south, Direction = south, Demand = 6000
2024-07-04 09:24:36.019 [main] INFO  hagrid.demand.SupplyCarrierGenerator - Split Carrier ID = supply_gls_laatzen_north, Direction = north, Demand = 7362
2024-07-04 09:24:36.020 [main] INFO  hagrid.demand.SupplyCarrierGenerator - Split Carrier ID = supply_gls_laatzen_west, Direction = west, Demand = 8000
2024-07-04 09:24:36.020 [main] INFO  hagrid.demand.SupplyCarrierGenerator - Split Carrier ID = supply_hermes_langenhagen_east, Direction = east, Demand = 6000
2024-07-04 09:24:36.021 [main] INFO  hagrid.demand.SupplyCarrierGenerator - Split Carrier ID = supply_hermes_langenhagen_south, Direction = south, Demand = 8000
2024-07-04 09:24:36.021 [main] INFO  hagrid.demand.SupplyCarrierGenerator - Split Carrier ID = supply_hermes_langenhagen_north, Direction = north, Demand = 6000
2024-07-04 09:24:36.022 [main] INFO  hagrid.demand.SupplyCarrierGenerator - Split Carrier ID = supply_hermes_langenhagen_west, Direction = west, Demand = 5206
2024-07-04 09:24:36.022 [main] INFO  hagrid.demand.SupplyCarrierGenerator - Split Carrier ID = supply_amazon_garbsen_east, Direction = east, Demand = 10802
2024-07-04 09:24:36.022 [main] INFO  hagrid.demand.SupplyCarrierGenerator - Split Carrier ID = supply_amazon_garbsen_south, Direction = south, Demand = 10000
2024-07-04 09:24:36.023 [main] INFO  hagrid.demand.SupplyCarrierGenerator - Split Carrier ID = supply_amazon_garbsen_north, Direction = north, Demand = 4000
2024-07-04 09:24:36.023 [main] INFO  hagrid.demand.SupplyCarrierGenerator - Split Carrier ID = supply_amazon_garbsen_west, Direction = west, Demand = 12000
2024-07-04 09:24:36.024 [main] INFO  hagrid.demand.SupplyCarrierGenerator - Split Carrier ID = supply_fedex_hannover_east, Direction = east, Demand = 14450
2024-07-04 09:24:36.024 [main] INFO  hagrid.demand.SupplyCarrierGenerator - Split Carrier ID = supply_fedex_hannover_south, Direction = south, Demand = 2000
2024-07-04 09:24:36.025 [main] INFO  hagrid.demand.SupplyCarrierGenerator - Split Carrier ID = supply_fedex_hannover_north, Direction = north, Demand = 4000
2024-07-04 09:24:36.025 [main] INFO  hagrid.demand.SupplyCarrierGenerator - Split Carrier ID = supply_fedex_hannover_west, Direction = west, Demand = 6000
2024-07-04 09:24:36.025 [main] INFO  hagrid.demand.SupplyCarrierGenerator - Split Carrier ID = supply_ups_hannover_east, Direction = east, Demand = 16000
2024-07-04 09:24:36.027 [main] INFO  hagrid.demand.SupplyCarrierGenerator - Split Carrier ID = supply_ups_hannover_south, Direction = south, Demand = 8000
2024-07-04 09:24:36.027 [main] INFO  hagrid.demand.SupplyCarrierGenerator - Split Carrier ID = supply_ups_hannover_north, Direction = north, Demand = 6000
2024-07-04 09:24:36.028 [main] INFO  hagrid.demand.SupplyCarrierGenerator - Split Carrier ID = supply_ups_hannover_west, Direction = west, Demand = 22982
2024-07-04 09:24:36.029 [main] INFO  hagrid.demand.SupplyCarrierGenerator - Split Carrier ID = supply_dp_dhl_burgdorf_east, Direction = east, Demand = 1896
2024-07-04 09:24:36.029 [main] INFO  hagrid.demand.SupplyCarrierGenerator - Split Carrier ID = supply_dp_dhl_burgdorf_south, Direction = south, Demand = 2000
2024-07-04 09:24:36.029 [main] INFO  hagrid.demand.SupplyCarrierGenerator - Split Carrier ID = supply_dp_dhl_burgdorf_north, Direction = north, Demand = 2000
2024-07-04 09:24:36.030 [main] INFO  hagrid.demand.SupplyCarrierGenerator - Split Carrier ID = supply_dp_dhl_burgdorf_west, Direction = west, Demand = 2000
2024-07-04 09:24:36.030 [main] INFO  hagrid.demand.SupplyCarrierGenerator - Split Carrier ID = supply_dp_dhl_springe_south, Direction = south, Demand = 2172
2024-07-04 09:24:36.031 [main] INFO  hagrid.demand.SupplyCarrierGenerator - Split Carrier ID = supply_dp_dhl_springe_north, Direction = north, Demand = 2000
2024-07-04 09:24:36.031 [main] INFO  hagrid.demand.SupplyCarrierGenerator - Split Carrier ID = supply_dp_dhl_garbsen_east, Direction = east, Demand = 4000
2024-07-04 09:24:36.033 [main] INFO  hagrid.demand.SupplyCarrierGenerator - Split Carrier ID = supply_dp_dhl_garbsen_south, Direction = south, Demand = 2000
2024-07-04 09:24:36.034 [main] INFO  hagrid.demand.SupplyCarrierGenerator - Split Carrier ID = supply_dp_dhl_garbsen_north, Direction = north, Demand = 940
2024-07-04 09:24:36.034 [main] INFO  hagrid.demand.SupplyCarrierGenerator - Split Carrier ID = supply_dp_dhl_seelze_south, Direction = south, Demand = 2324
2024-07-04 09:24:36.035 [main] INFO  hagrid.demand.SupplyCarrierGenerator - Split Carrier ID = supply_dp_dhl_seelze_north, Direction = north, Demand = 2000
2024-07-04 09:24:36.035 [main] INFO  hagrid.demand.SupplyCarrierGenerator - Split Carrier ID = supply_dp_dhl_seelze_west, Direction = west, Demand = 2000
2024-07-04 09:24:36.036 [main] INFO  hagrid.demand.SupplyCarrierGenerator - Split Carrier ID = supply_dp_dhl_wunstorf_east, Direction = east, Demand = 2598
2024-07-04 09:24:36.036 [main] INFO  hagrid.demand.SupplyCarrierGenerator - Split Carrier ID = supply_dp_dhl_wunstorf_north, Direction = north, Demand = 6000
2024-07-04 09:24:36.036 [main] INFO  hagrid.demand.SupplyCarrierGenerator - Split Carrier ID = supply_dp_dhl_wedemark_east, Direction = east, Demand = 2000
2024-07-04 09:24:36.037 [main] INFO  hagrid.demand.SupplyCarrierGenerator - Split Carrier ID = supply_dp_dhl_wedemark_south, Direction = south, Demand = 2000
2024-07-04 09:24:36.037 [main] INFO  hagrid.demand.SupplyCarrierGenerator - Split Carrier ID = supply_dp_dhl_wedemark_north, Direction = north, Demand = 7380
2024-07-04 09:24:36.038 [main] INFO  hagrid.demand.SupplyCarrierGenerator - Split Carrier ID = supply_dp_dhl_wedemark_west, Direction = west, Demand = 4000
2024-07-04 09:24:36.038 [main] INFO  hagrid.demand.SupplyCarrierGenerator - Split Carrier ID = supply_dp_dhl_uetze_north, Direction = north, Demand = 936
2024-07-04 09:24:36.038 [main] INFO  hagrid.demand.SupplyCarrierGenerator - Split Carrier ID = supply_dp_dhl_uetze_west, Direction = west, Demand = 2000
2024-07-04 09:24:36.039 [main] INFO  hagrid.demand.SupplyCarrierGenerator - Split Carrier ID = supply_dp_dhl_lehrte_east, Direction = east, Demand = 314
2024-07-04 09:24:36.039 [main] INFO  hagrid.demand.SupplyCarrierGenerator - Split Carrier ID = supply_dp_dhl_lehrte_south, Direction = south, Demand = 2000
2024-07-04 09:24:36.040 [main] INFO  hagrid.demand.SupplyCarrierGenerator - Split Carrier ID = supply_dp_dhl_lehrte_north, Direction = north, Demand = 2000
2024-07-04 09:24:36.040 [main] INFO  hagrid.demand.SupplyCarrierGenerator - Split Carrier ID = supply_dp_dhl_lehrte_west, Direction = west, Demand = 2000
2024-07-04 09:24:36.041 [main] INFO  hagrid.demand.SupplyCarrierGenerator - Split Carrier ID = supply_dp_dhl_neustadt_am_ruebenberge_east, Direction = east, Demand = 2000
2024-07-04 09:24:36.042 [main] INFO  hagrid.demand.SupplyCarrierGenerator - Split Carrier ID = supply_dp_dhl_neustadt_am_ruebenberge_north, Direction = north, Demand = 2000
2024-07-04 09:24:36.042 [main] INFO  hagrid.demand.SupplyCarrierGenerator - Split Carrier ID = supply_dp_dhl_neustadt_am_ruebenberge_west, Direction = west, Demand = 2382
2024-07-04 09:24:36.043 [main] INFO  hagrid.demand.SupplyCarrierGenerator - Split Carrier ID = supply_dp_dhl_wennigsen_east, Direction = east, Demand = 2000
2024-07-04 09:24:36.043 [main] INFO  hagrid.demand.SupplyCarrierGenerator - Split Carrier ID = supply_dp_dhl_wennigsen_south, Direction = south, Demand = 2000
2024-07-04 09:24:36.043 [main] INFO  hagrid.demand.SupplyCarrierGenerator - Split Carrier ID = supply_dp_dhl_wennigsen_north, Direction = north, Demand = 2000
2024-07-04 09:24:36.045 [main] INFO  hagrid.demand.SupplyCarrierGenerator - Split Carrier ID = supply_dp_dhl_wennigsen_west, Direction = west, Demand = 974
2024-07-04 09:24:36.045 [main] INFO  hagrid.demand.SupplyCarrierGenerator - Split Carrier ID = supply_dp_dhl_sehnde_north, Direction = north, Demand = 1710
2024-07-04 09:24:36.045 [main] INFO  hagrid.demand.SupplyCarrierGenerator - Starting validation of direct supply carriers...
2024-07-04 09:24:36.047 [main] INFO  hagrid.demand.SupplyCarrierGenerator - Hub dpd_lehrte: Assigned Demand = 44244, Carrier Demand = 44244
2024-07-04 09:24:36.047 [main] INFO  hagrid.demand.SupplyCarrierGenerator - Hub gls_laatzen: Assigned Demand = 35362, Carrier Demand = 35362
2024-07-04 09:24:36.048 [main] INFO  hagrid.demand.SupplyCarrierGenerator - Hub hermes_langenhagen: Assigned Demand = 25206, Carrier Demand = 25206
2024-07-04 09:24:36.049 [main] INFO  hagrid.demand.SupplyCarrierGenerator - Hub amazon_garbsen: Assigned Demand = 36802, Carrier Demand = 36802
2024-07-04 09:24:36.050 [main] INFO  hagrid.demand.SupplyCarrierGenerator - Hub fedex_hannover: Assigned Demand = 26450, Carrier Demand = 26450
2024-07-04 09:24:36.050 [main] INFO  hagrid.demand.SupplyCarrierGenerator - Hub ups_hannover: Assigned Demand = 52982, Carrier Demand = 52982
2024-07-04 09:24:36.051 [main] INFO  hagrid.demand.SupplyCarrierGenerator - Validation successful: Total assigned direct supply demand matches total direct supply carrier demand.
2024-07-04 09:24:36.052 [main] INFO  hagrid.demand.SupplyCarrierGenerator - Validation successful: Total DHL assigned supply demand matches total carrier demand from and to Anderten.
2024-07-04 09:24:36.053 [main] INFO  hagrid.demand.SupplyCarrierGenerator - Total DHL provider assigned supply demand: 101298
2024-07-04 09:24:36.053 [main] INFO  hagrid.demand.SupplyCarrierGenerator - Carrier demand to Anderten: 101298
2024-07-04 09:24:36.053 [main] INFO  hagrid.demand.SupplyCarrierGenerator - Total DHL assigned supply demand excluding Anderten: 85622
2024-07-04 09:24:36.053 [main] INFO  hagrid.demand.SupplyCarrierGenerator - Carrier demand from Anderten: 85622
2024-07-04 09:24:36.055 [main] INFO  hagrid.demand.SupplyCarrierGenerator - Validation successful: Total demand for split carriers of supply_to_dhl_anderten matches original demand. Original Demand: 101298, Split Demand: 101298
2024-07-04 09:24:36.056 [main] INFO  hagrid.demand.SupplyCarrierGenerator - Validation successful: Total demand for split carriers of supply_dpd_lehrte matches original demand. Original Demand: 44244, Split Demand: 44244
2024-07-04 09:24:36.057 [main] INFO  hagrid.demand.SupplyCarrierGenerator - Validation successful: Total demand for split carriers of supply_gls_laatzen matches original demand. Original Demand: 35362, Split Demand: 35362
2024-07-04 09:24:36.058 [main] INFO  hagrid.demand.SupplyCarrierGenerator - Validation successful: Total demand for split carriers of supply_hermes_langenhagen matches original demand. Original Demand: 25206, Split Demand: 25206
2024-07-04 09:24:36.058 [main] INFO  hagrid.demand.SupplyCarrierGenerator - Validation successful: Total demand for split carriers of supply_amazon_garbsen matches original demand. Original Demand: 36802, Split Demand: 36802
2024-07-04 09:24:36.059 [main] INFO  hagrid.demand.SupplyCarrierGenerator - Validation successful: Total demand for split carriers of supply_fedex_hannover matches original demand. Original Demand: 26450, Split Demand: 26450
2024-07-04 09:24:36.060 [main] INFO  hagrid.demand.SupplyCarrierGenerator - Validation successful: Total demand for split carriers of supply_ups_hannover matches original demand. Original Demand: 52982, Split Demand: 52982
2024-07-04 09:24:36.061 [main] INFO  hagrid.demand.SupplyCarrierGenerator - Validation successful: Total demand for split carriers of supply_dp_dhl_burgdorf matches original demand. Original Demand: 7896, Split Demand: 7896
2024-07-04 09:24:36.062 [main] INFO  hagrid.demand.SupplyCarrierGenerator - Validation successful: Total demand for split carriers of supply_dp_dhl_springe matches original demand. Original Demand: 4172, Split Demand: 4172
2024-07-04 09:24:36.062 [main] INFO  hagrid.demand.SupplyCarrierGenerator - Validation successful: Total demand for split carriers of supply_dp_dhl_garbsen matches original demand. Original Demand: 6940, Split Demand: 6940
2024-07-04 09:24:36.063 [main] INFO  hagrid.demand.SupplyCarrierGenerator - Validation successful: Total demand for split carriers of supply_dp_dhl_seelze matches original demand. Original Demand: 6324, Split Demand: 6324
2024-07-04 09:24:36.063 [main] INFO  hagrid.demand.SupplyCarrierGenerator - Validation successful: Total demand for split carriers of supply_dp_dhl_wunstorf matches original demand. Original Demand: 8598, Split Demand: 8598
2024-07-04 09:24:36.065 [main] INFO  hagrid.demand.SupplyCarrierGenerator - Validation successful: Total demand for split carriers of supply_dp_dhl_wedemark matches original demand. Original Demand: 15380, Split Demand: 15380
2024-07-04 09:24:36.066 [main] INFO  hagrid.demand.SupplyCarrierGenerator - Validation successful: Total demand for split carriers of supply_dp_dhl_uetze matches original demand. Original Demand: 2936, Split Demand: 2936
2024-07-04 09:24:36.066 [main] INFO  hagrid.demand.SupplyCarrierGenerator - Validation successful: Total demand for split carriers of supply_dp_dhl_lehrte matches original demand. Original Demand: 6314, Split Demand: 6314
2024-07-04 09:24:36.067 [main] INFO  hagrid.demand.SupplyCarrierGenerator - Validation successful: Total demand for split carriers of supply_dp_dhl_neustadt_am_ruebenberge matches original demand. Original Demand: 6382, Split Demand: 6382
2024-07-04 09:24:36.068 [main] INFO  hagrid.demand.SupplyCarrierGenerator - Validation successful: Total demand for split carriers of supply_dp_dhl_wennigsen matches original demand. Original Demand: 6974, Split Demand: 6974
2024-07-04 09:24:36.068 [main] INFO  hagrid.demand.SupplyCarrierGenerator - Validation successful: Total demand for split carriers of supply_dp_dhl_sehnde matches original demand. Original Demand: 1710, Split Demand: 1710
2024-07-04 09:24:36.069 [main] INFO  org.matsim.freight.carriers.CarrierPlanXmlWriterV2_1 - write carrier plans
2024-07-04 09:24:36.071 [main] INFO  org.matsim.freight.carriers.CarrierPlanXmlWriterV2_1 - done
2024-07-04 09:24:36.074 [main] INFO  org.matsim.freight.carriers.CarrierPlanXmlWriterV2_1 - write carrier plans
2024-07-04 09:24:36.080 [main] INFO  org.matsim.freight.carriers.CarrierPlanXmlWriterV2_1 - done
2024-07-04 09:24:36.080 [main] INFO  hagrid.demand.SupplyCarrierGenerator - Supply carrier generation completed successfully.
2024-07-04 09:24:36.081 [main] INFO  hagrid.App - Supply carrier generation completed.
2024-07-04 09:24:36.083 [main] INFO  hagrid.App - Initializing CarrierRouter with threading type: FORK_JOIN_POOL...
2024-07-04 09:24:36.155 [main] INFO  hagrid.App - Application finished.
2024-07-04 09:27:36.598 [main] INFO  hagrid.App - Starting application...
2024-07-04 09:27:36.860 [main] INFO  org.matsim.core.utils.io.IOUtils - Resolved phd/input/config.xml to phd\input\config.xml
2024-07-04 09:27:36.868 [main] INFO  org.matsim.core.config.Config - setting context to [file:/C:/Users/bienzeisler/Documents/GitHub/HAGRID/]
2024-07-04 09:27:37.148 [main] INFO  org.hibernate.validator.internal.util.Version - HV000001: Hibernate Validator 7.0.1.Final
[...]
2024-07-04 10:55:59.112 [main] INFO  hagrid.demand.SupplyCarrierGenerator - Supply carrier generation completed successfully.
2024-07-04 10:55:59.113 [main] INFO  hagrid.App - Supply carrier generation completed.
2024-07-04 10:55:59.115 [main] INFO  hagrid.App - Initializing CarrierRouter with threading type: FORK_JOIN_POOL...
2024-07-04 10:55:59.123 [main] INFO  hagrid.App - Starting routing process for delivery and supply carriers...
2024-07-04 10:55:59.123 [main] INFO  hagrid.demand.CarrierRouter - Starting routing process for carriers with threading type: FORK_JOIN_POOL.
2024-07-04 10:55:59.124 [main] INFO  hagrid.demand.CarrierRouter - Retrieved 389 delivery carriers from the scenario.
2024-07-04 10:55:59.124 [main] INFO  hagrid.demand.CarrierRouter - Retrieved 56 supply carriers from the scenario.
2024-07-04 10:55:59.125 [main] INFO  hagrid.demand.CarrierRouter - Retrieved 2094861 links from the carFilteredNetwork.
2024-07-04 10:55:59.125 [main] INFO  hagrid.demand.CarrierRouter - Retrieved 12 carrier vehicles types.
2024-07-04 10:55:59.125 [main] INFO  hagrid.demand.CarrierRouter - Set up routing costs: NetworkBasedTransportCosts and ZoneBasedTransportCosts.
2024-07-04 10:55:59.143 [main] INFO  hagrid.demand.Router - Starting routing of carriers using FORK_JOIN_POOL...
2024-07-04 10:55:59.149 [ForkJoinPool-1-worker-1] INFO  hagrid.demand.Router - ROUTING CARRIER 1 OUT OF 56 TOTAL CARRIERS
2024-07-04 10:55:59.149 [ForkJoinPool-1-worker-2] INFO  hagrid.demand.Router - ROUTING CARRIER 2 OUT OF 56 TOTAL CARRIERS
2024-07-04 10:55:59.150 [ForkJoinPool-1-worker-5] INFO  hagrid.demand.Router - ROUTING CARRIER 5 OUT OF 56 TOTAL CARRIERS
2024-07-04 10:55:59.150 [ForkJoinPool-1-worker-7] INFO  hagrid.demand.Router - ROUTING CARRIER 7 OUT OF 56 TOTAL CARRIERS
2024-07-04 10:55:59.150 [ForkJoinPool-1-worker-4] INFO  hagrid.demand.Router - ROUTING CARRIER 4 OUT OF 56 TOTAL CARRIERS
2024-07-04 10:55:59.150 [ForkJoinPool-1-worker-6] INFO  hagrid.demand.Router - ROUTING CARRIER 6 OUT OF 56 TOTAL CARRIERS
2024-07-04 10:55:59.150 [ForkJoinPool-1-worker-3] INFO  hagrid.demand.Router - ROUTING CARRIER 3 OUT OF 56 TOTAL CARRIERS
2024-07-04 10:55:59.150 [ForkJoinPool-1-worker-8] INFO  hagrid.demand.Router - ROUTING CARRIER 8 OUT OF 56 TOTAL CARRIERS
2024-07-04 10:56:01.285 [ForkJoinPool-1-worker-8] INFO  org.matsim.core.router.speedy.SpeedyALTData - find dead ends...
2024-07-04 10:56:01.316 [ForkJoinPool-1-worker-6] INFO  org.matsim.core.router.speedy.SpeedyALTData - find dead ends...
2024-07-04 10:56:01.321 [ForkJoinPool-1-worker-4] INFO  org.matsim.core.router.speedy.SpeedyALTData - find dead ends...
2024-07-04 10:56:13.495 [ForkJoinPool-1-worker-1] INFO  org.matsim.core.router.speedy.SpeedyALTData - find dead ends...
2024-07-04 10:56:13.496 [ForkJoinPool-1-worker-7] INFO  org.matsim.core.router.speedy.SpeedyALTData - find dead ends...
2024-07-04 10:56:19.081 [ForkJoinPool-1-worker-3] INFO  hagrid.demand.Router - ROUTING CARRIER 10 OUT OF 56 TOTAL CARRIERS
2024-07-04 10:56:19.081 [ForkJoinPool-1-worker-5] INFO  hagrid.demand.Router - ROUTING CARRIER 9 OUT OF 56 TOTAL CARRIERS
2024-07-04 10:56:24.642 [ForkJoinPool-1-worker-2] INFO  hagrid.demand.Router - ROUTING CARRIER 11 OUT OF 56 TOTAL CARRIERS
2024-07-04 10:56:24.989 [ForkJoinPool-1-worker-1] INFO  org.matsim.core.router.speedy.SpeedyALTData - calculate landmarks...
2024-07-04 10:56:27.319 [ForkJoinPool-1-worker-6] INFO  org.matsim.core.router.speedy.SpeedyALTData - calculate landmarks...
2024-07-04 10:56:27.320 [ForkJoinPool-1-worker-8] INFO  org.matsim.core.router.speedy.SpeedyALTData - calculate landmarks...
2024-07-04 10:56:27.320 [ForkJoinPool-1-worker-7] INFO  org.matsim.core.router.speedy.SpeedyALTData - calculate landmarks...
2024-07-04 10:56:38.361 [ForkJoinPool-1-worker-6] INFO  hagrid.demand.Router - ROUTING CARRIER 12 OUT OF 56 TOTAL CARRIERS
2024-07-04 10:56:38.370 [ForkJoinPool-1-worker-4] INFO  org.matsim.core.router.speedy.SpeedyALTData - calculate landmarks...
2024-07-04 10:56:51.577 [ForkJoinPool-1-worker-2] INFO  hagrid.demand.Router - ROUTING CARRIER 13 OUT OF 56 TOTAL CARRIERS
2024-07-04 10:57:43.003 [ForkJoinPool-1-worker-6] INFO  hagrid.demand.Router - ROUTING CARRIER 14 OUT OF 56 TOTAL CARRIERS
2024-07-04 10:58:02.140 [ForkJoinPool-1-worker-5] INFO  hagrid.demand.Router - ROUTING CARRIER 15 OUT OF 56 TOTAL CARRIERS
2024-07-04 10:58:08.024 [ForkJoinPool-1-worker-3] INFO  hagrid.demand.Router - ROUTING CARRIER 16 OUT OF 56 TOTAL CARRIERS
2024-07-04 10:58:14.168 [ForkJoinPool-1-worker-2] INFO  hagrid.demand.Router - ROUTING CARRIER 17 OUT OF 56 TOTAL CARRIERS
2024-07-04 10:58:19.808 [ForkJoinPool-1-worker-6] INFO  org.matsim.core.router.speedy.SpeedyALTData - find dead ends...
2024-07-04 10:58:40.344 [ForkJoinPool-1-worker-6] INFO  hagrid.demand.Router - ROUTING CARRIER 18 OUT OF 56 TOTAL CARRIERS
2024-07-04 10:58:46.705 [ForkJoinPool-1-worker-5] INFO  hagrid.demand.Router - ROUTING CARRIER 19 OUT OF 56 TOTAL CARRIERS
2024-07-04 10:58:58.789 [ForkJoinPool-1-worker-2] INFO  hagrid.demand.Router - ROUTING CARRIER 20 OUT OF 56 TOTAL CARRIERS
2024-07-04 10:59:05.005 [ForkJoinPool-1-worker-6] INFO  hagrid.demand.Router - ROUTING CARRIER 21 OUT OF 56 TOTAL CARRIERS
2024-07-04 10:59:13.604 [ForkJoinPool-1-worker-5] INFO  hagrid.demand.Router - ROUTING CARRIER 22 OUT OF 56 TOTAL CARRIERS
2024-07-04 10:59:31.054 [ForkJoinPool-1-worker-3] INFO  hagrid.demand.Router - ROUTING CARRIER 23 OUT OF 56 TOTAL CARRIERS
2024-07-04 10:59:31.057 [ForkJoinPool-1-worker-2] INFO  hagrid.demand.Router - ROUTING CARRIER 24 OUT OF 56 TOTAL CARRIERS
2024-07-04 10:59:36.957 [ForkJoinPool-1-worker-6] INFO  hagrid.demand.Router - ROUTING CARRIER 25 OUT OF 56 TOTAL CARRIERS
2024-07-04 10:59:56.622 [ForkJoinPool-1-worker-3] INFO  hagrid.demand.Router - ROUTING CARRIER 26 OUT OF 56 TOTAL CARRIERS
2024-07-04 11:00:26.640 [ForkJoinPool-1-worker-3] INFO  hagrid.demand.Router - ROUTING CARRIER 27 OUT OF 56 TOTAL CARRIERS
2024-07-04 11:00:32.258 [ForkJoinPool-1-worker-5] INFO  hagrid.demand.Router - ROUTING CARRIER 28 OUT OF 56 TOTAL CARRIERS
2024-07-04 11:01:13.057 [ForkJoinPool-1-worker-5] INFO  hagrid.demand.Router - ROUTING CARRIER 30 OUT OF 56 TOTAL CARRIERS
2024-07-04 11:01:13.058 [ForkJoinPool-1-worker-2] INFO  hagrid.demand.Router - ROUTING CARRIER 29 OUT OF 56 TOTAL CARRIERS
2024-07-04 11:01:21.730 [ForkJoinPool-1-worker-6] INFO  hagrid.demand.Router - ROUTING CARRIER 31 OUT OF 56 TOTAL CARRIERS
2024-07-04 11:03:21.671 [ForkJoinPool-1-worker-4] ERROR org.matsim.core.router.speedy.SpeedyALTData - java.util.concurrent.ExecutionException: java.lang.OutOfMemoryError: Java heap space
2024-07-04 11:03:24.666 [ForkJoinPool-1-worker-8] ERROR org.matsim.core.router.speedy.SpeedyALTData - java.util.concurrent.ExecutionException: java.lang.OutOfMemoryError: Java heap space
2024-07-04 11:03:24.752 [ForkJoinPool-1-worker-8] ERROR org.matsim.core.router.speedy.SpeedyALTData - java.util.concurrent.ExecutionException: java.lang.OutOfMemoryError: Java heap space
2024-07-04 11:03:24.858 [ForkJoinPool-1-worker-8] ERROR org.matsim.core.router.speedy.SpeedyALTData - java.util.concurrent.ExecutionException: java.lang.OutOfMemoryError: Java heap space
2024-07-04 11:03:25.629 [ForkJoinPool-1-worker-4] INFO  org.matsim.core.router.speedy.SpeedyALTData - calculate min travelcost...
2024-07-04 11:03:29.358 [ForkJoinPool-1-worker-7] ERROR org.matsim.core.router.speedy.SpeedyALTData - java.util.concurrent.ExecutionException: java.lang.OutOfMemoryError: Java heap space
2024-07-04 11:03:29.371 [ForkJoinPool-1-worker-4] INFO  org.matsim.core.utils.misc.Counter - #TransportCostValues cached 1
2024-07-04 11:03:29.502 [ForkJoinPool-1-worker-7] ERROR org.matsim.core.router.speedy.SpeedyALTData - java.util.concurrent.ExecutionException: java.lang.OutOfMemoryError: Java heap space
2024-07-04 11:03:29.504 [ForkJoinPool-1-worker-7] ERROR org.matsim.core.router.speedy.SpeedyALTData - java.util.concurrent.ExecutionException: java.lang.OutOfMemoryError: Java heap space
2024-07-04 11:03:29.514 [ForkJoinPool-1-worker-4] INFO  org.matsim.core.utils.misc.Counter - #TransportCostValues cached 2
2024-07-04 11:03:29.648 [ForkJoinPool-1-worker-4] INFO  org.matsim.core.utils.misc.Counter - #TransportCostValues cached 4
2024-07-04 11:03:30.298 [ForkJoinPool-1-worker-4] INFO  org.matsim.freight.carriers.jsprit.MatsimJspritFactory - Use the (MATSim) vehicleType that was stored inside the (jsprit) vehicleType during the jsprit run but never interacted with jsprit. 
2024-07-04 11:03:30.313 [ForkJoinPool-1-worker-4] INFO  org.matsim.freight.carriers.jsprit.MatsimJspritFactory - Use the (MATSim) vehicleType that was stored inside the (jsprit) vehicleType during the jsprit run but never interacted with jsprit. 
2024-07-04 11:03:30.315 [ForkJoinPool-1-worker-4] INFO  org.matsim.freight.carriers.jsprit.MatsimJspritFactory - Use the (MATSim) vehicleType that was stored inside the (jsprit) vehicleType during the jsprit run but never interacted with jsprit. 
2024-07-04 11:03:30.316 [ForkJoinPool-1-worker-4] INFO  org.matsim.freight.carriers.jsprit.MatsimJspritFactory - Use the (MATSim) vehicleType that was stored inside the (jsprit) vehicleType during the jsprit run but never interacted with jsprit. 
2024-07-04 11:03:30.317 [ForkJoinPool-1-worker-4] INFO  org.matsim.freight.carriers.jsprit.MatsimJspritFactory - Use the (MATSim) vehicleType that was stored inside the (jsprit) vehicleType during the jsprit run but never interacted with jsprit. 
2024-07-04 11:03:30.318 [ForkJoinPool-1-worker-4] INFO  org.matsim.freight.carriers.jsprit.MatsimJspritFactory - Use the (MATSim) vehicleType that was stored inside the (jsprit) vehicleType during the jsprit run but never interacted with jsprit. 
2024-07-04 11:03:30.319 [ForkJoinPool-1-worker-4] INFO  org.matsim.freight.carriers.jsprit.MatsimJspritFactory - Use the (MATSim) vehicleType that was stored inside the (jsprit) vehicleType during the jsprit run but never interacted with jsprit. 
2024-07-04 11:03:30.324 [ForkJoinPool-1-worker-4] INFO  hagrid.demand.Router - Routing plan for carrier supply_dpd_lehrte_south
2024-07-04 11:03:30.396 [ForkJoinPool-1-worker-8] INFO  org.matsim.core.router.speedy.SpeedyALTData - calculate min travelcost...
2024-07-04 11:03:30.875 [ForkJoinPool-1-worker-4] INFO  hagrid.demand.Router - Routing for carrier supply_dpd_lehrte_south finished. Tour planning plus routing took 451.723 seconds. Carrier has 7 services
2024-07-04 11:03:31.124 [ForkJoinPool-1-worker-8] INFO  org.matsim.core.utils.misc.Counter - #TransportCostValues cached 8
2024-07-04 11:03:31.705 [ForkJoinPool-1-worker-8] INFO  org.matsim.freight.carriers.jsprit.MatsimJspritFactory - Use the (MATSim) vehicleType that was stored inside the (jsprit) vehicleType during the jsprit run but never interacted with jsprit. 
2024-07-04 11:03:31.706 [ForkJoinPool-1-worker-8] INFO  hagrid.demand.Router - Routing plan for carrier supply_dp_dhl_springe_north
2024-07-04 11:03:31.874 [ForkJoinPool-1-worker-8] INFO  hagrid.demand.Router - Routing for carrier supply_dp_dhl_springe_north finished. Tour planning plus routing took 452.722 seconds. Carrier has 1 services
2024-07-04 11:03:32.170 [ForkJoinPool-1-worker-7] INFO  org.matsim.core.router.speedy.SpeedyALTData - calculate min travelcost...
2024-07-04 11:03:32.713 [ForkJoinPool-1-worker-7] INFO  org.matsim.core.utils.misc.Counter - #TransportCostValues cached 16
2024-07-04 11:03:32.807 [ForkJoinPool-1-worker-7] INFO  org.matsim.freight.carriers.jsprit.MatsimJspritFactory - Use the (MATSim) vehicleType that was stored inside the (jsprit) vehicleType during the jsprit run but never interacted with jsprit. 
2024-07-04 11:03:32.808 [ForkJoinPool-1-worker-7] INFO  hagrid.demand.Router - Routing plan for carrier supply_dp_dhl_seelze_north
2024-07-04 11:03:32.877 [ForkJoinPool-1-worker-7] INFO  hagrid.demand.Router - Routing for carrier supply_dp_dhl_seelze_north finished. Tour planning plus routing took 453.725 seconds. Carrier has 1 services
2024-07-04 11:03:32.878 [main] ERROR hagrid.demand.Router - Error in parallel routing execution
java.util.concurrent.ExecutionException: java.lang.OutOfMemoryError
	at java.base/java.util.concurrent.ForkJoinTask.reportExecutionException(ForkJoinTask.java:581) ~[?:?]
	at java.base/java.util.concurrent.ForkJoinTask.get(ForkJoinTask.java:993) ~[?:?]
	at hagrid.demand.Router.routeCarriers(Router.java:73) [classes/:?]
	at hagrid.demand.CarrierRouter.run(CarrierRouter.java:92) [classes/:?]
	at hagrid.App.runRouter(App.java:161) [classes/:?]
	at hagrid.App.main(App.java:33) [classes/:?]
Caused by: java.lang.OutOfMemoryError
	at java.base/jdk.internal.reflect.DirectConstructorHandleAccessor.newInstance(DirectConstructorHandleAccessor.java:62) ~[?:?]
	at java.base/java.lang.reflect.Constructor.newInstanceWithCaller(Constructor.java:502) ~[?:?]
	at java.base/java.lang.reflect.Constructor.newInstance(Constructor.java:486) ~[?:?]
	at java.base/java.util.concurrent.ForkJoinTask.getThrowableException(ForkJoinTask.java:542) ~[?:?]
	at java.base/java.util.concurrent.ForkJoinTask.reportExecutionException(ForkJoinTask.java:580) ~[?:?]
	... 5 more
Caused by: java.lang.OutOfMemoryError
	at java.base/jdk.internal.reflect.DirectConstructorHandleAccessor.newInstance(DirectConstructorHandleAccessor.java:62) ~[?:?]
	at java.base/java.lang.reflect.Constructor.newInstanceWithCaller(Constructor.java:502) ~[?:?]
	at java.base/java.lang.reflect.Constructor.newInstance(Constructor.java:486) ~[?:?]
	at java.base/java.util.concurrent.ForkJoinTask.getThrowableException(ForkJoinTask.java:542) ~[?:?]
	at java.base/java.util.concurrent.ForkJoinTask.reportException(ForkJoinTask.java:567) ~[?:?]
	at java.base/java.util.concurrent.ForkJoinTask.invoke(ForkJoinTask.java:670) ~[?:?]
	at java.base/java.util.stream.ForEachOps$ForEachOp.evaluateParallel(ForEachOps.java:160) ~[?:?]
	at java.base/java.util.stream.ForEachOps$ForEachOp$OfRef.evaluateParallel(ForEachOps.java:174) ~[?:?]
	at java.base/java.util.stream.AbstractPipeline.evaluate(AbstractPipeline.java:233) ~[?:?]
	at java.base/java.util.stream.ReferencePipeline.forEach(ReferencePipeline.java:596) ~[?:?]
	at java.base/java.util.stream.ReferencePipeline$Head.forEach(ReferencePipeline.java:765) ~[?:?]
	at hagrid.demand.Router.lambda$1(Router.java:70) ~[classes/:?]
	at java.base/java.util.concurrent.ForkJoinTask$AdaptedRunnableAction.exec(ForkJoinTask.java:1403) ~[?:?]
	at java.base/java.util.concurrent.ForkJoinTask.doExec(ForkJoinTask.java:387) ~[?:?]
	at java.base/java.util.concurrent.ForkJoinPool$WorkQueue.topLevelExec(ForkJoinPool.java:1312) ~[?:?]
	at java.base/java.util.concurrent.ForkJoinPool.scan(ForkJoinPool.java:1843) ~[?:?]
	at java.base/java.util.concurrent.ForkJoinPool.runWorker(ForkJoinPool.java:1808) ~[?:?]
	at java.base/java.util.concurrent.ForkJoinWorkerThread.run(ForkJoinWorkerThread.java:188) ~[?:?]
Caused by: java.lang.OutOfMemoryError: Java heap space
	at org.matsim.core.router.speedy.SpeedyALTData.<init>(SpeedyALTData.java:42) ~[matsim-2025.0-2024w21.jar:?]
	at org.matsim.core.router.speedy.SpeedyALTFactory.createPathCalculator(SpeedyALTFactory.java:30) ~[matsim-2025.0-2024w21.jar:?]
	at org.matsim.freight.carriers.jsprit.NetworkBasedTransportCosts$Builder.lambda$new$1(NetworkBasedTransportCosts.java:380) ~[freight-2025.0-2024w21.jar:?]
	at org.matsim.freight.carriers.jsprit.NetworkBasedTransportCosts$Builder$$Lambda/0x0000024d3f5aa540.createPathCalculator(Unknown Source) ~[?:?]
	at org.matsim.freight.carriers.jsprit.NetworkBasedTransportCosts.createLeastCostPathCalculator(NetworkBasedTransportCosts.java:850) ~[freight-2025.0-2024w21.jar:?]
	at org.matsim.freight.carriers.jsprit.NetworkBasedTransportCosts.getTransportTime(NetworkBasedTransportCosts.java:619) ~[freight-2025.0-2024w21.jar:?]
	at com.graphhopper.jsprit.core.problem.constraint.VehicleDependentTimeWindowConstraints.fulfilled(VehicleDependentTimeWindowConstraints.java:111) ~[jsprit-core-1.8.jar:?]
	at com.graphhopper.jsprit.core.algorithm.recreate.AbstractInsertionCalculator.fulfilled(AbstractInsertionCalculator.java:70) ~[jsprit-core-1.8.jar:?]
	at com.graphhopper.jsprit.core.algorithm.recreate.ServiceInsertionCalculator.getInsertionData(ServiceInsertionCalculator.java:145) ~[jsprit-core-1.8.jar:?]
	at com.graphhopper.jsprit.core.algorithm.recreate.JobCalculatorSwitcher.getInsertionData(JobCalculatorSwitcher.java:40) ~[jsprit-core-1.8.jar:?]
	at com.graphhopper.jsprit.core.algorithm.recreate.VehicleTypeDependentJobInsertionCalculator.getInsertionData(VehicleTypeDependentJobInsertionCalculator.java:116) ~[jsprit-core-1.8.jar:?]
	at com.graphhopper.jsprit.core.algorithm.recreate.RegretInsertion.getScoredJob(RegretInsertion.java:187) ~[jsprit-core-1.8.jar:?]
	at com.graphhopper.jsprit.core.algorithm.recreate.RegretInsertion.nextJob(RegretInsertion.java:140) ~[jsprit-core-1.8.jar:?]
	at com.graphhopper.jsprit.core.algorithm.recreate.RegretInsertion.insertUnassignedJobs(RegretInsertion.java:112) ~[jsprit-core-1.8.jar:?]
	at com.graphhopper.jsprit.core.algorithm.recreate.AbstractInsertionStrategy.insertJobs(AbstractInsertionStrategy.java:91) ~[jsprit-core-1.8.jar:?]
	at com.graphhopper.jsprit.core.algorithm.InsertionInitialSolutionFactory.createSolution(InsertionInitialSolutionFactory.java:56) ~[jsprit-core-1.8.jar:?]
	at com.graphhopper.jsprit.core.algorithm.PrettyAlgorithmBuilder.lambda$build$0(PrettyAlgorithmBuilder.java:108) ~[jsprit-core-1.8.jar:?]
	at com.graphhopper.jsprit.core.algorithm.PrettyAlgorithmBuilder$$Lambda/0x0000024d3f642a00.informAlgorithmStarts(Unknown Source) ~[?:?]
	at com.graphhopper.jsprit.core.algorithm.listener.VehicleRoutingAlgorithmListeners.algorithmStarts(VehicleRoutingAlgorithmListeners.java:128) ~[jsprit-core-1.8.jar:?]
	at com.graphhopper.jsprit.core.algorithm.VehicleRoutingAlgorithm.algorithmStarts(VehicleRoutingAlgorithm.java:341) ~[jsprit-core-1.8.jar:?]
	at com.graphhopper.jsprit.core.algorithm.VehicleRoutingAlgorithm.searchSolutions(VehicleRoutingAlgorithm.java:229) ~[jsprit-core-1.8.jar:?]
	at hagrid.demand.Router.routeCarrier(Router.java:138) ~[classes/:?]
	at hagrid.demand.Router.lambda$2(Router.java:71) ~[classes/:?]
	at hagrid.demand.Router$$Lambda/0x0000024d3f5aefc8.accept(Unknown Source) ~[?:?]
	at java.base/java.util.stream.ForEachOps$ForEachOp$OfRef.accept(ForEachOps.java:184) ~[?:?]
	at java.base/java.util.ArrayList$ArrayListSpliterator.forEachRemaining(ArrayList.java:1708) ~[?:?]
	at java.base/java.util.stream.AbstractPipeline.copyInto(AbstractPipeline.java:509) ~[?:?]
	at java.base/java.util.stream.ForEachOps$ForEachTask.compute(ForEachOps.java:291) ~[?:?]
	at java.base/java.util.concurrent.CountedCompleter.exec(CountedCompleter.java:754) ~[?:?]
	at java.base/java.util.concurrent.ForkJoinTask.doExec(ForkJoinTask.java:387) ~[?:?]
	at java.base/java.util.concurrent.ForkJoinPool$WorkQueue.topLevelExec(ForkJoinPool.java:1312) ~[?:?]
	at java.base/java.util.concurrent.ForkJoinPool.scan(ForkJoinPool.java:1843) ~[?:?]
2024-07-04 11:03:32.903 [main] INFO  hagrid.demand.Router - Finished routing all carriers using FORK_JOIN_POOL in 453 seconds.
2024-07-04 11:03:32.905 [main] INFO  hagrid.utils.routing.HAGRIDRouterUtils - Plotting routing runtime...
2024-07-04 11:03:33.293 [main] INFO  hagrid.utils.routing.HAGRIDRouterUtils - Routing runtime plot saved as C:\Users\bienzeisler\Documents\GitHub\HAGRID\phd\output\FORK_JOIN_POOL_routing_runtime.png
2024-07-04 11:03:33.294 [main] INFO  org.matsim.freight.carriers.CarrierPlanXmlWriterV2_1 - write carrier plans
2024-07-04 11:03:33.302 [main] INFO  org.matsim.freight.carriers.CarrierPlanXmlWriterV2_1 - done
2024-07-04 11:03:33.302 [main] INFO  hagrid.demand.CarrierRouter - Routing process for carriers completed successfully.
2024-07-04 11:03:33.302 [main] INFO  hagrid.App - Routing process for delivery and supply carriers completed.
2024-07-04 11:03:33.303 [main] INFO  hagrid.App - Application finished.
